Network_06R-124/scenario_65/case.raw
0,100.0,33,0,0,60.0
GRID OPTIMIZATION COMPETITION
INPUT DATA FILES ARE RAW ROP INL CON
1,'            ',138.0,1,1,1,1,1.0287416,-9.432955,1.1,0.9,1.1,0.9
2,'            ',69.0,1,1,1,1,1.0354974,-11.460732,1.1,0.9,1.1,0.9
3,'            ',138.0,1,1,1,1,1.028306,-9.463376,1.1,0.9,1.1,0.9
4,'            ',69.0,1,1,1,1,1.0425728,-12.95434,1.1,0.9,1.1,0.9
5,'            ',69.0,1,1,1,1,1.0434536,-12.859805,1.1,0.9,1.1,0.9
6,'            ',69.0,1,1,1,1,1.0255436,-12.95423,1.1,0.9,1.1,0.9
7,'            ',138.0,1,1,1,1,1.0190281,-10.435219,1.1,0.9,1.1,0.9
8,'            ',69.0,1,1,1,1,1.0395,-13.86995,1.1,0.9,1.1,0.9
9,'            ',138.0,1,1,1,1,1.0194162,-10.411981,1.1,0.9,1.1,0.9
10,'            ',69.0,1,1,1,1,1.0374074,-13.1261,1.1,0.9,1.1,0.9
11,'            ',138.0,1,1,1,1,1.0190154,-10.453851,1.1,0.9,1.1,0.9
12,'            ',138.0,1,1,1,1,1.0212571,-10.478972,1.1,0.9,1.1,0.9
13,'            ',69.0,1,1,1,1,1.0244174,-13.25349,1.1,0.9,1.1,0.9
14,'            ',138.0,1,1,1,1,1.0212956,-10.462602,1.1,0.9,1.1,0.9
15,'            ',138.0,1,1,1,1,1.0221284,-10.277408,1.1,0.9,1.1,0.9
16,'            ',69.0,1,1,1,1,1.049231,-11.806941,1.1,0.9,1.1,0.9
17,'            ',69.0,1,1,1,1,1.0171372,-12.357072,1.1,0.9,1.1,0.9
18,'            ',69.0,1,1,1,1,1.0263085,-12.317263,1.1,0.9,1.1,0.9
19,'            ',69.0,1,1,1,1,1.0262549,-12.325732,1.1,0.9,1.1,0.9
20,'            ',138.0,1,1,1,1,1.0202764,-10.252325,1.1,0.9,1.1,0.9
21,'            ',69.0,1,1,1,1,1.0513137,-12.30541,1.1,0.9,1.1,0.9
22,'            ',138.0,1,1,1,1,1.0211886,-10.185574,1.1,0.9,1.1,0.9
23,'            ',69.0,1,1,1,1,1.034546,-11.981676,1.1,0.9,1.1,0.9
24,'            ',69.0,1,1,1,1,1.0411866,-11.459269,1.1,0.9,1.1,0.9
25,'            ',69.0,1,1,1,1,1.0411337,-11.467138,1.1,0.9,1.1,0.9
26,'            ',138.0,1,1,1,1,1.0194766,-10.213269,1.1,0.9,1.1,0.9
27,'            ',69.0,1,1,1,1,1.0348407,-12.302641,1.1,0.9,1.1,0.9
28,'            ',138.0,1,1,1,1,1.0194346,-10.198006,1.1,0.9,1.1,0.9
29,'            ',69.0,1,1,1,1,1.0513959,-10.86599,1.1,0.9,1.1,0.9
30,'            ',138.0,1,1,1,1,1.0226353,-10.231307,1.1,0.9,1.1,0.9
31,'            ',138.0,1,1,1,1,1.0220296,-10.219553,1.1,0.9,1.1,0.9
32,'            ',69.0,1,1,1,1,1.0203121,-11.62233,1.1,0.9,1.1,0.9
33,'            ',138.0,1,1,1,1,1.0217642,-10.250171,1.1,0.9,1.1,0.9
34,'            ',138.0,1,1,1,1,1.0246098,-9.4927715,1.1,0.9,1.1,0.9
35,'            ',69.0,1,1,1,1,1.0479215,-11.723878,1.1,0.9,1.1,0.9
36,'            ',69.0,1,1,1,1,1.0534448,-11.168519,1.1,0.9,1.1,0.9
37,'            ',69.0,1,1,1,1,1.0466911,-12.12378,1.1,0.9,1.1,0.9
38,'            ',69.0,1,1,1,1,1.0440731,-12.835225,1.1,0.9,1.1,0.9
39,'            ',138.0,1,1,1,1,1.0289914,-8.0834469,1.1,0.9,1.1,0.9
40,'            ',69.0,1,1,1,1,1.0446249,-9.549632,1.1,0.9,1.1,0.9
41,'            ',69.0,1,1,1,1,1.0385831,-10.975154,1.1,0.9,1.1,0.9
42,'            ',138.0,1,1,1,1,1.0240103,-10.170752,1.1,0.9,1.1,0.9
43,'            ',69.0,1,1,1,1,1.0254927,-12.093366,1.1,0.9,1.1,0.9
44,'            ',138.0,1,1,1,1,1.0234487,-10.207594,1.1,0.9,1.1,0.9
45,'            ',69.0,1,1,1,1,1.009263,-12.91466,1.1,0.9,1.1,0.9
46,'            ',69.0,1,1,1,1,1.0183375,-12.487243,1.1,0.9,1.1,0.9
47,'            ',345.0,1,1,1,1,1.0303744,-4.8343024,1.1,0.9,1.1,0.9
48,'            ',138.0,1,1,1,1,1.0485088,-5.0466744,1.1,0.9,1.1,0.9
49,'            ',69.0,1,1,1,1,1.0505599,-6.9333303,1.1,0.9,1.1,0.9
50,'            ',345.0,1,1,1,1,1.0300908,-4.8565548,1.1,0.9,1.1,0.9
51,'            ',69.0,1,1,1,1,1.0260793,-9.6239113,1.1,0.9,1.1,0.9
52,'            ',345.0,1,1,1,1,1.0332787,-5.6717147,1.1,0.9,1.1,0.9
53,'            ',138.0,1,1,1,1,1.0323212,-7.5218495,1.1,0.9,1.1,0.9
54,'            ',345.0,1,1,1,1,1.0329823,-5.7010288,1.1,0.9,1.1,0.9
55,'            ',138.0,1,1,1,1,1.0419204,-5.5946722,1.1,0.9,1.1,0.9
56,'            ',69.0,1,1,1,1,1.0424176,-8.3899073,1.1,0.9,1.1,0.9
57,'            ',138.0,1,1,1,1,1.0417819,-5.6148174,1.1,0.9,1.1,0.9
58,'            ',69.0,1,1,1,1,1.0358159,-9.3214586,1.1,0.9,1.1,0.9
59,'            ',69.0,1,1,1,1,1.0468619,-5.963594,1.1,0.9,1.1,0.9
60,'            ',69.0,1,1,1,1,1.0465721,-6.4872942,1.1,0.9,1.1,0.9
61,'            ',69.0,1,1,1,1,1.0432759,-8.1424385,1.1,0.9,1.1,0.9
62,'            ',69.0,1,1,1,1,1.0530292,-7.0221169,1.1,0.9,1.1,0.9
63,'            ',138.0,1,1,1,1,1.0193229,-6.2311693,1.1,0.9,1.1,0.9
64,'            ',69.0,1,1,1,1,1.0552773,-7.3504868,1.1,0.9,1.1,0.9
65,'            ',138.0,1,1,1,1,1.0191972,-6.2394546,1.1,0.9,1.1,0.9
66,'            ',69.0,1,1,1,1,1.0447313,-6.5159826,1.1,0.9,1.1,0.9
67,'            ',138.0,1,1,1,1,1.023872,-4.7549387,1.1,0.9,1.1,0.9
68,'            ',69.0,1,1,1,1,1.0534049,-4.8351688,1.1,0.9,1.1,0.9
69,'            ',138.0,1,1,1,1,1.0238133,-4.7587607,1.1,0.9,1.1,0.9
70,'            ',69.0,1,1,1,1,1.0519685,-5.9511265,1.1,0.9,1.1,0.9
71,'            ',138.0,1,1,1,1,1.0337108,-5.3416809,1.1,0.9,1.1,0.9
72,'            ',69.0,1,1,1,1,1.0584366,-5.7240142,1.1,0.9,1.1,0.9
73,'            ',138.0,1,1,1,1,1.0335804,-5.3596618,1.1,0.9,1.1,0.9
74,'            ',69.0,1,1,1,1,1.0335,-0.52119456,1.1,0.9,1.1,0.9
75,'            ',69.0,1,1,1,1,1.0331278,-0.21496546,1.1,0.9,1.1,0.9
76,'            ',138.0,1,1,1,1,1.0367009,-1.0299403,1.1,0.9,1.1,0.9
77,'            ',69.0,1,1,1,1,1.0359018,-0.53439907,1.1,0.9,1.1,0.9
78,'            ',138.0,1,1,1,1,1.0365883,-1.0446499,1.1,0.9,1.1,0.9
79,'            ',138.0,1,1,1,1,1.0344361,-1.5251769,1.1,0.9,1.1,0.9
80,'            ',69.0,1,1,1,1,1.0508816,-0.88134122,1.1,0.9,1.1,0.9
81,'            ',138.0,1,1,1,1,1.0343878,-1.5307623,1.1,0.9,1.1,0.9
82,'            ',69.0,1,1,1,1,1.0514675,-1.9840086,1.1,0.9,1.1,0.9
83,'            ',138.0,1,1,1,1,1.0277632,-3.5854447,1.1,0.9,1.1,0.9
84,'            ',138.0,1,1,1,1,1.0277632,-3.5854447,1.1,0.9,1.1,0.9
85,'            ',138.0,1,1,1,1,1.0277632,-3.5854447,1.1,0.9,1.1,0.9
86,'            ',138.0,1,1,1,1,1.0244637,-9.8745343,1.1,0.9,1.1,0.9
87,'            ',69.0,1,1,1,1,1.0535711,-11.616014,1.1,0.9,1.1,0.9
88,'            ',138.0,1,1,1,1,1.0241647,-9.9062082,1.1,0.9,1.1,0.9
89,'            ',138.0,1,1,1,1,1.0382646,-6.6720828,1.1,0.9,1.1,0.9
90,'            ',69.0,1,1,1,1,1.0476203,-8.6349403,1.1,0.9,1.1,0.9
91,'            ',138.0,1,1,1,1,1.0380095,-6.7065569,1.1,0.9,1.1,0.9
92,'            ',69.0,1,1,1,1,1.0448962,-7.8587411,1.1,0.9,1.1,0.9
93,'            ',69.0,1,1,1,1,1.0365,-8.1006015,1.1,0.9,1.1,0.9
94,'            ',69.0,1,1,1,1,1.0403346,-8.1578963,1.1,0.9,1.1,0.9
95,'            ',69.0,1,1,1,1,1.0415,-7.669883,1.1,0.9,1.1,0.9
96,'            ',345.0,1,1,1,1,1.0328198,-3.144818,1.1,0.9,1.1,0.9
97,'            ',138.0,1,1,1,1,1.0459643,-5.5719953,1.1,0.9,1.1,0.9
98,'            ',69.0,1,1,1,1,1.0554009,-7.7446982,1.1,0.9,1.1,0.9
99,'            ',138.0,1,1,1,1,1.0444923,-5.7663439,1.1,0.9,1.1,0.9
100,'            ',138.0,1,1,1,1,1.0397675,-7.2315494,1.1,0.9,1.1,0.9
101,'            ',69.0,1,1,1,1,1.0499,-8.962188,1.1,0.9,1.1,0.9
102,'            ',138.0,1,1,1,1,1.0394206,-7.2729581,1.1,0.9,1.1,0.9
103,'            ',69.0,1,1,1,1,1.0510012,-8.0934482,1.1,0.9,1.1,0.9
104,'            ',69.0,1,1,1,1,1.0491423,-8.3960622,1.1,0.9,1.1,0.9
105,'            ',345.0,1,1,1,1,1.0396023,-2.3309163,1.1,0.9,1.1,0.9
106,'            ',138.0,1,1,1,1,1.039407,-4.6363444,1.1,0.9,1.1,0.9
107,'            ',69.0,1,1,1,1,1.0470919,-6.9174535,1.1,0.9,1.1,0.9
108,'            ',345.0,1,1,1,1,1.0391783,-2.3704826,1.1,0.9,1.1,0.9
109,'            ',69.0,1,1,1,1,1.0358345,-9.0762065,1.1,0.9,1.1,0.9
110,'            ',138.0,1,1,1,1,1.0432385,-7.1244712,1.1,0.9,1.1,0.9
111,'            ',69.0,1,1,1,1,1.0426125,-7.5358597,1.1,0.9,1.1,0.9
112,'            ',138.0,1,1,1,1,1.042952,-7.1591715,1.1,0.9,1.1,0.9
113,'            ',69.0,1,1,1,1,1.0382832,-10.168228,1.1,0.9,1.1,0.9
114,'            ',69.0,1,1,1,1,1.0345,-4.6160597,1.1,0.9,1.1,0.9
115,'            ',69.0,1,1,1,1,1.03822,-7.8994694,1.1,0.9,1.1,0.9
116,'            ',69.0,1,1,1,1,1.0493905,-8.7422628,1.1,0.9,1.1,0.9
117,'            ',69.0,1,1,1,1,1.0405349,-7.4771492,1.1,0.9,1.1,0.9
118,'            ',69.0,1,1,1,1,1.0413344,-8.0167545,1.1,0.9,1.1,0.9
119,'            ',69.0,1,1,1,1,1.0438523,-12.742716,1.1,0.9,1.1,0.9
120,'            ',69.0,1,1,1,1,1.0363406,-12.960479,1.1,0.9,1.1,0.9
121,'            ',138.0,1,1,1,1,1.0090783,-11.665694,1.1,0.9,1.1,0.9
122,'            ',69.0,1,1,1,1,1.0362382,-11.937147,1.1,0.9,1.1,0.9
123,'            ',138.0,1,1,1,1,1.0087058,-11.704015,1.1,0.9,1.1,0.9
124,'            ',138.0,1,1,1,1,1.0108431,-12.332341,1.1,0.9,1.1,0.9
125,'            ',69.0,1,1,1,1,1.0203064,-13.214053,1.1,0.9,1.1,0.9
126,'            ',138.0,1,1,1,1,1.0105353,-12.357169,1.1,0.9,1.1,0.9
127,'            ',69.0,1,1,1,1,1.0472076,-11.366716,1.1,0.9,1.1,0.9
128,'            ',69.0,1,1,1,1,1.0398269,-12.953383,1.1,0.9,1.1,0.9
129,'            ',69.0,1,1,1,1,1.0436962,-11.899711,1.1,0.9,1.1,0.9
130,'            ',69.0,1,1,1,1,1.0434592,-11.932726,1.1,0.9,1.1,0.9
131,'            ',69.0,1,1,1,1,1.0375,-14.634086,1.1,0.9,1.1,0.9
132,'            ',138.0,1,1,1,1,1.0122607,-12.346479,1.1,0.9,1.1,0.9
133,'            ',69.0,1,1,1,1,1.0219127,-13.912519,1.1,0.9,1.1,0.9
134,'            ',138.0,1,1,1,1,1.0121689,-12.302048,1.1,0.9,1.1,0.9
135,'            ',138.0,1,1,1,1,1.0114217,-10.835801,1.1,0.9,1.1,0.9
136,'            ',69.0,1,1,1,1,1.0458575,-12.578249,1.1,0.9,1.1,0.9
137,'            ',138.0,1,1,1,1,1.0109593,-10.90192,1.1,0.9,1.1,0.9
138,'            ',69.0,1,1,1,1,1.0411556,-12.473652,1.1,0.9,1.1,0.9
139,'            ',138.0,1,1,1,1,1.0079095,-11.618055,1.1,0.9,1.1,0.9
140,'            ',69.0,1,1,1,1,1.0294921,-13.824726,1.1,0.9,1.1,0.9
141,'            ',138.0,1,1,1,1,1.0081714,-11.6051,1.1,0.9,1.1,0.9
142,'            ',138.0,1,1,1,1,1.0123745,-11.013713,1.1,0.9,1.1,0.9
143,'            ',69.0,1,1,1,1,1.0400363,-12.334763,1.1,0.9,1.1,0.9
144,'            ',138.0,1,1,1,1,1.0120625,-11.059227,1.1,0.9,1.1,0.9
145,'            ',69.0,1,1,1,1,1.0475846,-11.706413,1.1,0.9,1.1,0.9
146,'            ',69.0,1,1,1,1,1.0397247,-13.29648,1.1,0.9,1.1,0.9
147,'            ',138.0,1,1,1,1,1.0135501,-10.357511,1.1,0.9,1.1,0.9
148,'            ',69.0,1,1,1,1,1.047515,-11.75421,1.1,0.9,1.1,0.9
149,'            ',138.0,1,1,1,1,1.0132691,-10.392155,1.1,0.9,1.1,0.9
150,'            ',69.0,1,1,1,1,1.0402842,-12.965621,1.1,0.9,1.1,0.9
151,'            ',138.0,1,1,1,1,1.0141816,-10.947309,1.1,0.9,1.1,0.9
152,'            ',69.0,1,1,1,1,1.0475315,-12.667909,1.1,0.9,1.1,0.9
153,'            ',138.0,1,1,1,1,1.0139984,-10.977855,1.1,0.9,1.1,0.9
154,'            ',69.0,1,1,1,1,1.0342216,-13.393699,1.1,0.9,1.1,0.9
155,'            ',69.0,1,1,1,1,1.0481584,-11.239846,1.1,0.9,1.1,0.9
156,'            ',69.0,1,1,1,1,1.0469253,-11.785027,1.1,0.9,1.1,0.9
157,'            ',138.0,1,1,1,1,1.0203862,-8.9984787,1.1,0.9,1.1,0.9
158,'            ',138.0,1,1,1,1,1.0226885,-8.7282952,1.1,0.9,1.1,0.9
159,'            ',345.0,1,1,1,1,1.0365,-6.2074906,1.1,0.9,1.1,0.9
160,'            ',138.0,1,1,1,1,1.0342742,-7.1674207,1.1,0.9,1.1,0.9
161,'            ',69.0,1,1,1,1,1.0350832,-9.4175263,1.1,0.9,1.1,0.9
162,'            ',138.0,1,1,1,1,1.0333686,-7.2625002,1.1,0.9,1.1,0.9
163,'            ',69.0,1,1,1,1,1.0482352,-10.402716,1.1,0.9,1.1,0.9
164,'            ',69.0,1,1,1,1,1.0385178,-13.186438,1.1,0.9,1.1,0.9
165,'            ',138.0,1,1,1,1,1.0070552,-11.067414,1.1,0.9,1.1,0.9
166,'            ',69.0,1,1,1,1,1.0453074,-12.638044,1.1,0.9,1.1,0.9
167,'            ',138.0,1,1,1,1,1.0058683,-11.134917,1.1,0.9,1.1,0.9
168,'            ',69.0,1,1,1,1,1.0405931,-12.957212,1.1,0.9,1.1,0.9
169,'            ',69.0,1,1,1,1,1.0355,-12.843712,1.1,0.9,1.1,0.9
170,'            ',138.0,1,1,1,1,1.0119143,-11.213286,1.1,0.9,1.1,0.9
171,'            ',69.0,1,1,1,1,1.0370785,-12.71407,1.1,0.9,1.1,0.9
172,'            ',138.0,1,1,1,1,1.0115989,-11.247751,1.1,0.9,1.1,0.9
173,'            ',69.0,1,1,1,1,1.0415,-13.455458,1.1,0.9,1.1,0.9
174,'            ',138.0,1,1,1,1,1.0165782,-10.426377,1.1,0.9,1.1,0.9
175,'            ',69.0,1,1,1,1,1.047846,-12.112804,1.1,0.9,1.1,0.9
176,'            ',138.0,1,1,1,1,1.0163577,-10.458666,1.1,0.9,1.1,0.9
177,'            ',69.0,1,1,1,1,1.0405,-12.537377,1.1,0.9,1.1,0.9
178,'            ',69.0,1,1,1,1,1.0335,-10.836931,1.1,0.9,1.1,0.9
179,'            ',69.0,1,1,1,1,1.0509115,-11.409762,1.1,0.9,1.1,0.9
180,'            ',69.0,1,1,1,1,1.0498882,-11.396506,1.1,0.9,1.1,0.9
181,'            ',138.0,1,1,1,1,1.01517,-10.944706,1.1,0.9,1.1,0.9
182,'            ',69.0,1,1,1,1,1.0386281,-12.851785,1.1,0.9,1.1,0.9
183,'            ',138.0,1,1,1,1,1.0148846,-10.976423,1.1,0.9,1.1,0.9
184,'            ',69.0,1,1,1,1,1.0362854,-12.020365,1.1,0.9,1.1,0.9
185,'            ',69.0,1,1,1,1,1.0370378,-12.51375,1.1,0.9,1.1,0.9
186,'            ',69.0,1,1,1,1,1.0405,-11.069699,1.1,0.9,1.1,0.9
187,'            ',69.0,1,1,1,1,1.0252768,-13.163315,1.1,0.9,1.1,0.9
188,'            ',138.0,1,1,1,1,1.0366753,-9.7437178,1.1,0.9,1.1,0.9
189,'            ',69.0,1,1,1,1,1.0481864,-10.924679,1.1,0.9,1.1,0.9
190,'            ',138.0,1,1,1,1,1.0364486,-9.7719092,1.1,0.9,1.1,0.9
191,'            ',138.0,1,1,1,1,1.0185347,-9.2227252,1.1,0.9,1.1,0.9
192,'            ',69.0,1,1,1,1,1.05472,-11.189219,1.1,0.9,1.1,0.9
193,'            ',138.0,1,1,1,1,1.0199532,-9.0947009,1.1,0.9,1.1,0.9
194,'            ',138.0,1,1,1,1,1.0171699,-9.5258307,1.1,0.9,1.1,0.9
195,'            ',69.0,1,1,1,1,1.0547911,-11.16917,1.1,0.9,1.1,0.9
196,'            ',138.0,1,1,1,1,1.0170053,-9.5494256,1.1,0.9,1.1,0.9
197,'            ',69.0,1,1,1,1,1.0404618,-11.034353,1.1,0.9,1.1,0.9
198,'            ',69.0,1,1,1,1,1.0406482,-11.013065,1.1,0.9,1.1,0.9
199,'            ',69.0,1,1,1,1,1.0395,-10.482845,1.1,0.9,1.1,0.9
200,'            ',69.0,1,1,1,1,1.0312406,-9.6882225,1.1,0.9,1.1,0.9
...
0 / END OF BUS DATA BEGIN LOAD DATA
3,'1',1,1,1,61.535023,29.774554,0.0,0.0,0.0,0.0,1,1,0
4,'1',1,1,1,37.215839,2.5076648,0.0,0.0,0.0,0.0,1,1,0
5,'1',1,1,1,57.470177,28.288695,0.0,0.0,0.0,0.0,1,1,0
6,'1',1,1,1,54.357302,4.4066523,0.0,0.0,0.0,0.0,1,1,0
7,'1',1,1,1,52.261512,11.240782,0.0,0.0,0.0,0.0,1,1,0
8,'1',1,1,1,40.3622,10.560085,0.0,0.0,0.0,0.0,1,1,0
11,'1',1,1,1,67.744074,22.257415,0.0,0.0,0.0,0.0,1,1,0
13,'1',1,1,1,72.379184,15.500841,0.0,0.0,0.0,0.0,1,1,0
15,'1',1,1,1,109.0353,52.986025,0.0,0.0,0.0,0.0,1,1,0
16,'1',1,1,1,46.970528,9.1168055,0.0,0.0,0.0,0.0,1,1,0
17,'1',1,1,1,40.28901,23.849193,0.0,0.0,0.0,0.0,1,1,0
19,'1',1,1,1,14.808,1.6779568,0.0,0.0,0.0,0.0,1,1,0
21,'1',1,1,1,94.673545,11.599615,0.0,0.0,0.0,0.0,1,1,0
23,'1',1,1,1,47.511039,7.0109757,0.0,0.0,0.0,0.0,1,1,0
24,'1',1,1,1,10.314704,2.282079,0.0,0.0,0.0,0.0,1,1,0
25,'1',1,1,1,13.914032,1.6618081,0.0,0.0,0.0,0.0,1,1,0
27,'1',1,1,1,65.414432,17.356709,0.0,0.0,0.0,0.0,1,1,0
29,'1',1,1,1,65.667115,25.638999,0.0,0.0,0.0,0.0,1,1,0
30,'1',1,1,1,57.894178,1.2885827,0.0,0.0,0.0,0.0,1,1,0
33,'1',1,1,1,49.139616,11.353648,0.0,0.0,0.0,0.0,1,1,0
34,'1',1,1,1,48.324557,13.08516,0.0,0.0,0.0,0.0,1,1,0
35,'1',1,1,1,55.110267,10.263317,0.0,0.0,0.0,0.0,1,1,0
36,'1',1,1,1,37.220558,4.1898662,0.0,0.0,0.0,0.0,1,1,0
37,'1',1,1,1,64.798694,7.323399,0.0,0.0,0.0,0.0,1,1,0
38,'1',1,1,1,19.60137,4.903895,0.0,0.0,0.0,0.0,1,1,0
40,'1',1,1,1,45.655387,25.189102,0.0,0.0,0.0,0.0,1,1,0
41,'1',1,1,1,26.597533,8.8974625,0.0,0.0,0.0,0.0,1,1,0
44,'1',1,1,1,69.472477,39.361855,0.0,0.0,0.0,0.0,1,1,0
45,'1',1,1,1,19.737026,3.6914158,0.0,0.0,0.0,0.0,1,1,0
46,'1',1,1,1,25.116585,4.723931,0.0,0.0,0.0,0.0,1,1,0
50,'1',1,1,1,41.491288,17.662801,0.0,0.0,0.0,0.0,1,1,0
51,'1',1,1,1,27.320205,14.12134,0.0,0.0,0.0,0.0,1,1,0
54,'1',1,1,1,57.521504,18.55328,0.0,0.0,0.0,0.0,1,1,0
57,'1',1,1,1,38.775878,2.8521584,0.0,0.0,0.0,0.0,1,1,0
58,'1',1,1,1,31.720818,12.790197,0.0,0.0,0.0,0.0,1,1,0
59,'1',1,1,1,20.803699,7.0568013,0.0,0.0,0.0,0.0,1,1,0
60,'1',1,1,1,17.409022,0.55819405,0.0,0.0,0.0,0.0,1,1,0
61,'1',1,1,1,7.780268,2.3668045,0.0,0.0,0.0,0.0,1,1,0
62,'1',1,1,1,7.3705274,4.7006449,0.0,0.0,0.0,0.0,1,1,0
65,'1',1,1,1,16.343313,8.5182798,0.0,0.0,0.0,0.0,1,1,0
66,'1',1,1,1,6.9885843,2.672248,0.0,0.0,0.0,0.0,1,1,0
69,'1',1,1,1,7.2682837,3.8501986,0.0,0.0,0.0,0.0,1,1,0
70,'1',1,1,1,6.2579844,0.53408009,0.0,0.0,0.0,0.0,1,1,0
72,'1',1,1,1,11.31444,3.7743233,0.0,0.0,0.0,0.0,1,1,0
74,'1',1,1,1,12.833394,1.0566963,0.0,0.0,0.0,0.0,1,1,0
75,'1',1,1,1,14.487252,4.7324199,0.0,0.0,0.0,0.0,1,1,0
78,'1',1,1,1,26.947272,4.7685654,0.0,0.0,0.0,0.0,1,1,0
81,'1',1,1,1,10.022218,1.8945946,0.0,0.0,0.0,0.0,1,1,0
82,'1',1,1,1,6.3464608,0.41855493,0.0,0.0,0.0,0.0,1,1,0
84,'1',1,1,1,14.468854,4.6508892,0.0,0.0,0.0,0.0,1,1,0
88,'1',1,1,1,57.189324,13.903639,0.0,0.0,0.0,0.0,1,1,0
91,'1',1,1,1,59.653036,9.5783427,0.0,0.0,0.0,0.0,1,1,0
92,'1',1,1,1,30.599785,14.793251,0.0,0.0,0.0,0.0,1,1,0
93,'1',1,1,1,15.66251,3.6600008,0.0,0.0,0.0,0.0,1,1,0
94,'1',1,1,1,17.618986,2.959565,0.0,0.0,0.0,0.0,1,1,0
95,'1',1,1,1,44.586177,11.824523,0.0,0.0,0.0,0.0,1,1,0
99,'1',1,1,1,79.315827,29.436608,0.0,0.0,0.0,0.0,1,1,0
102,'1',1,1,1,81.081965,11.823764,0.0,0.0,0.0,0.0,1,1,0
103,'1',1,1,1,31.800386,1.4876488,0.0,0.0,0.0,0.0,1,1,0
104,'1',1,1,1,44.365017,15.819104,0.0,0.0,0.0,0.0,1,1,0
108,'1',1,1,1,76.710823,26.127033,0.0,0.0,0.0,0.0,1,1,0
109,'1',1,1,1,40.024936,10.562381,0.0,0.0,0.0,0.0,1,1,0
112,'1',1,1,1,61.488999,14.550456,0.0,0.0,0.0,0.0,1,1,0
113,'1',1,1,1,44.478786,5.1823975,0.0,0.0,0.0,0.0,1,1,0
114,'1',1,1,1,5.6026497,1.5646544,0.0,0.0,0.0,0.0,1,1,0
115,'1',1,1,1,32.879477,14.081277,0.0,0.0,0.0,0.0,1,1,0
116,'1',1,1,1,11.708652,2.5722796,0.0,0.0,0.0,0.0,1,1,0
117,'1',1,1,1,32.17701,1.1714651,0.0,0.0,0.0,0.0,1,1,0
118,'1',1,1,1,11.958076,2.7894879,0.0,0.0,0.0,0.0,1,1,0
119,'1',1,1,1,39.841383,10.990012,0.0,0.0,0.0,0.0,1,1,0
120,'1',1,1,1,57.479178,39.193219,0.0,0.0,0.0,0.0,1,1,0
123,'1',1,1,1,64.849536,20.105128,0.0,0.0,0.0,0.0,1,1,0
126,'1',1,1,1,48.847496,18.437344,0.0,0.0,0.0,0.0,1,1,0
127,'1',1,1,1,22.757879,5.7125403,0.0,0.0,0.0,0.0,1,1,0
128,'1',1,1,1,31.188367,7.5058912,0.0,0.0,0.0,0.0,1,1,0
130,'1',1,1,1,54.983436,9.2425166,0.0,0.0,0.0,0.0,1,1,0
131,'1',1,1,1,38.106646,20.27426,0.0,0.0,0.0,0.0,1,1,0
133,'1',1,1,1,62.943948,11.560024,0.0,0.0,0.0,0.0,1,1,0
137,'1',1,1,1,120.79013,15.286719,0.0,0.0,0.0,0.0,1,1,0
138,'1',1,1,1,41.067463,4.820775,0.0,0.0,0.0,0.0,1,1,0
140,'1',1,1,1,84.674424,50.690172,0.0,0.0,0.0,0.0,1,1,0
144,'1',1,1,1,72.281846,13.793184,0.0,0.0,0.0,0.0,1,1,0
145,'1',1,1,1,42.770284,4.9572266,0.0,0.0,0.0,0.0,1,1,0
146,'1',1,1,1,32.157349,7.0530162,0.0,0.0,0.0,0.0,1,1,0
149,'1',1,1,1,56.631519,13.237214,0.0,0.0,0.0,0.0,1,1,0
150,'1',1,1,1,47.644976,5.9415734,0.0,0.0,0.0,0.0,1,1,0
153,'1',1,1,1,51.068177,5.9437173,0.0,0.0,0.0,0.0,1,1,0
154,'1',1,1,1,57.104618,12.05249,0.0,0.0,0.0,0.0,1,1,0
155,'1',1,1,1,55.905835,2.4808317,0.0,0.0,0.0,0.0,1,1,0
156,'1',1,1,1,46.072067,20.489091,0.0,0.0,0.0,0.0,1,1,0
157,'1',1,1,1,43.462265,11.373092,0.0,0.0,0.0,0.0,1,1,0
158,'1',1,1,1,65.574996,15.543396,0.0,0.0,0.0,0.0,1,1,0
162,'1',1,1,1,66.321576,9.6077562,0.0,0.0,0.0,0.0,1,1,0
163,'1',1,1,1,41.358158,10.046116,0.0,0.0,0.0,0.0,1,1,0
164,'1',1,1,1,20.220898,5.3743571,0.0,0.0,0.0,0.0,1,1,0
167,'1',1,1,1,135.48262,82.423666,0.0,0.0,0.0,0.0,1,1,0
168,'1',1,1,1,21.334025,4.0591071,0.0,0.0,0.0,0.0,1,1,0
169,'1',1,1,1,41.271793,10.982154,0.0,0.0,0.0,0.0,1,1,0
172,'1',1,1,1,60.024986,14.174862,0.0,0.0,0.0,0.0,1,1,0
173,'1',1,1,1,47.724814,24.708419,0.0,0.0,0.0,0.0,1,1,0
176,'1',1,1,1,56.008912,6.5708413,0.0,0.0,0.0,0.0,1,1,0
177,'1',1,1,1,33.163684,9.1349698,0.0,0.0,0.0,0.0,1,1,0
178,'1',1,1,1,16.373945,3.6111071,0.0,0.0,0.0,0.0,1,1,0
179,'1',1,1,1,29.779176,3.4919703,0.0,0.0,0.0,0.0,1,1,0
180,'1',1,1,1,22.097637,3.1901889,0.0,0.0,0.0,0.0,1,1,0
183,'1',1,1,1,57.085116,13.379956,0.0,0.0,0.0,0.0,1,1,0
184,'1',1,1,1,38.831064,2.7333606,0.0,0.0,0.0,0.0,1,1,0
185,'1',1,1,1,30.436303,5.2399981,0.0,0.0,0.0,0.0,1,1,0
186,'1',1,1,1,28.361203,6.7010054,0.0,0.0,0.0,0.0,1,1,0
187,'1',1,1,1,35.389669,10.7523,0.0,0.0,0.0,0.0,1,1,0
190,'1',1,1,1,49.202117,11.038592,0.0,0.0,0.0,0.0,1,1,0
192,'1',1,1,1,42.973898,18.601752,0.0,0.0,0.0,0.0,1,1,0
196,'1',1,1,1,38.976937,6.4945383,0.0,0.0,0.0,0.0,1,1,0
197,'1',1,1,1,40.333575,8.9882374,0.0,0.0,0.0,0.0,1,1,0
199,'1',1,1,1,26.711382,3.5968831,0.0,0.0,0.0,0.0,1,1,0
200,'1',1,1,1,31.914635,12.623689,0.0,0.0,0.0,0.0,1,1,0
201,'1',1,1,1,38.459469,8.2898787,0.0,0.0,0.0,0.0,1,1,0
204,'1',1,1,1,73.277621,35.234024,0.0,0.0,0.0,0.0,1,1,0
206,'1',1,1,1,21.356422,8.7731658,0.0,0.0,0.0,0.0,1,1,0
209,'1',1,1,1,34.377515,10.139398,0.0,0.0,0.0,0.0,1,1,0
213,'1',1,1,1,44.285797,17.299587,0.0,0.0,0.0,0.0,1,1,0
214,'1',1,1,1,25.059235,5.2042985,0.0,0.0,0.0,0.0,1,1,0
217,'1',1,1,1,82.80525,24.63554,0.0,0.0,0.0,0.0,1,1,0
218,'1',1,1,1,21.809458,5.4851998,0.0,0.0,0.0,0.0,1,1,0
219,'1',1,1,1,16.717529,10.397702,0.0,0.0,0.0,0.0,1,1,0
220,'1',1,1,1,37.641066,8.2220505,0.0,0.0,0.0,0.0,1,1,0
221,'1',1,1,1,21.181702,8.3967765,0.0,0.0,0.0,0.0,1,1,0
223,'1',1,1,1,49.35844,6.7375267,0.0,0.0,0.0,0.0,1,1,0
225,'1',1,1,1,102.63118,29.286354,0.0,0.0,0.0,0.0,1,1,0
226,'1',1,1,1,36.522047,16.489645,0.0,0.0,0.0,0.0,1,1,0
227,'1',1,1,1,22.597633,8.558261,0.0,0.0,0.0,0.0,1,1,0
229,'1',1,1,1,68.641195,21.904213,0.0,0.0,0.0,0.0,1,1,0
230,'1',1,1,1,4.1126585,1.1900168,0.0,0.0,0.0,0.0,1,1,0
234,'1',1,1,1,43.831996,4.9193036,0.0,0.0,0.0,0.0,1,1,0
236,'1',1,1,1,26.116524,4.8823795,0.0,0.0,0.0,0.0,1,1,0
237,'1',1,1,1,33.192703,8.6266567,0.0,0.0,0.0,0.0,1,1,0
238,'1',1,1,1,26.559158,6.2528163,0.0,0.0,0.0,0.0,1,1,0
239,'1',1,1,1,33.494012,5.0606854,0.0,0.0,0.0,0.0,1,1,0
241,'1',1,1,1,75.297193,9.3656696,0.0,0.0,0.0,0.0,1,1,0
242,'1',1,1,1,26.74741,2.9092819,0.0,0.0,0.0,0.0,1,1,0
244,'1',1,1,1,43.4291,4.2308156,0.0,0.0,0.0,0.0,1,1,0
245,'1',1,1,1,43.569912,4.1660297,0.0,0.0,0.0,0.0,1,1,0
246,'1',1,1,1,50.893846,28.561208,0.0,0.0,0.0,0.0,1,1,0
247,'1',1,1,1,53.008947,15.593801,0.0,0.0,0.0,0.0,1,1,0
250,'1',1,1,1,78.747029,2.5616452,0.0,0.0,0.0,0.0,1,1,0
253,'1',1,1,1,82.542394,15.035935,0.0,0.0,0.0,0.0,1,1,0
255,'1',1,1,1,55.232653,1.9230119,0.0,0.0,0.0,0.0,1,1,0
259,'1',1,1,1,61.042968,18.003579,0.0,0.0,0.0,0.0,1,1,0
260,'1',1,1,1,46.730991,12.947735,0.0,0.0,0.0,0.0,1,1,0
262,'1',1,1,1,55.467498,33.492996,0.0,0.0,0.0,0.0,1,1,0
263,'1',1,1,1,28.094817,9.9170377,0.0,0.0,0.0,0.0,1,1,0
265,'1',1,1,1,69.732515,18.89045,0.0,0.0,0.0,0.0,1,1,0
267,'1',1,1,1,48.32031,16.055763,0.0,0.0,0.0,0.0,1,1,0
270,'1',1,1,1,60.306869,15.230317,0.0,0.0,0.0,0.0,1,1,0
271,'1',1,1,1,43.138577,12.092144,0.0,0.0,0.0,0.0,1,1,0
274,'1',1,1,1,55.491793,14.959757,0.0,0.0,0.0,0.0,1,1,0
275,'1',1,1,1,23.545803,8.1175748,0.0,0.0,0.0,0.0,1,1,0
276,'1',1,1,1,21.18263,6.7412486,0.0,0.0,0.0,0.0,1,1,0
277,'1',1,1,1,12.622239,1.3167152,0.0,0.0,0.0,0.0,1,1,0
281,'1',1,1,1,35.658802,12.480473,0.0,0.0,0.0,0.0,1,1,0
282,'1',1,1,1,11.165625,3.4389414,0.0,0.0,0.0,0.0,1,1,0
283,'1',1,1,1,12.744329,4.238921,0.0,0.0,0.0,0.0,1,1,0
285,'1',1,1,1,28.934564,2.989062,0.0,0.0,0.0,0.0,1,1,0
286,'1',1,1,1,45.790461,15.954989,0.0,0.0,0.0,0.0,1,1,0
287,'1',1,1,1,63.033973,9.2763568,0.0,0.0,0.0,0.0,1,1,0
288,'1',1,1,1,31.048456,5.4205736,0.0,0.0,0.0,0.0,1,1,0
290,'1',1,1,1,40.715785,2.8898832,0.0,0.0,0.0,0.0,1,1,0
294,'1',1,1,1,29.744141,2.3296525,0.0,0.0,0.0,0.0,1,1,0
295,'1',1,1,1,56.456824,20.164567,0.0,0.0,0.0,0.0,1,1,0
298,'1',1,1,1,54.657923,14.785414,0.0,0.0,0.0,0.0,1,1,0
299,'1',1,1,1,40.166011,14.32014,0.0,0.0,0.0,0.0,1,1,0
300,'1',1,1,1,61.338987,8.2451962,0.0,0.0,0.0,0.0,1,1,0
301,'1',1,1,1,24.903942,8.0699867,0.0,0.0,0.0,0.0,1,1,0
302,'1',1,1,1,29.259751,6.6274504,0.0,0.0,0.0,0.0,1,1,0
303,'1',1,1,1,19.040876,9.7973171,0.0,0.0,0.0,0.0,1,1,0
305,'1',1,1,1,8.6108265,0.32254635,0.0,0.0,0.0,0.0,1,1,0
306,'1',1,1,1,16.620831,1.1341004,0.0,0.0,0.0,0.0,1,1,0
307,'1',1,1,1,25.276911,5.1475267,0.0,0.0,0.0,0.0,1,1,0
308,'1',1,1,1,42.359316,2.7611947,0.0,0.0,0.0,0.0,1,1,0
311,'1',1,1,1,59.53645,17.593647,0.0,0.0,0.0,0.0,1,1,0
315,'1',1,1,1,54.274904,20.329896,0.0,0.0,0.0,0.0,1,1,0
318,'1',1,1,1,34.626113,9.0661003,0.0,0.0,0.0,0.0,1,1,0
320,'1',1,1,1,40.185663,13.185392,0.0,0.0,0.0,0.0,1,1,0
321,'1',1,1,1,20.706577,9.1727762,0.0,0.0,0.0,0.0,1,1,0
324,'1',1,1,1,24.374112,9.2195138,0.0,0.0,0.0,0.0,1,1,0
327,'1',1,1,1,30.585953,3.4010888,0.0,0.0,0.0,0.0,1,1,0
328,'1',1,1,1,9.0763489,0.87420925,0.0,0.0,0.0,0.0,1,1,0
329,'1',1,1,1,7.952119,1.2447749,0.0,0.0,0.0,0.0,1,1,0
330,'1',1,1,1,36.698919,6.2882169,0.0,0.0,0.0,0.0,1,1,0
333,'1',1,1,1,45.383559,5.9855424,0.0,0.0,0.0,0.0,1,1,0
336,'1',1,1,1,74.031868,8.5812146,0.0,0.0,0.0,0.0,1,1,0
338,'1',1,1,1,59.099856,7.3526128,0.0,0.0,0.0,0.0,1,1,0
339,'1',1,1,1,38.939583,6.6516034,0.0,0.0,0.0,0.0,1,1,0
340,'1',1,1,1,46.688701,15.403587,0.0,0.0,0.0,0.0,1,1,0
341,'1',1,1,1,29.638495,4.5684287,0.0,0.0,0.0,0.0,1,1,0
344,'1',1,1,1,40.365568,14.658076,0.0,0.0,0.0,0.0,1,1,0
345,'1',1,1,1,7.4781466,2.5597251,0.0,0.0,0.0,0.0,1,1,0
346,'1',1,1,1,7.90114,1.7016882,0.0,0.0,0.0,0.0,1,1,0
347,'1',1,1,1,18.41676,6.028095,0.0,0.0,0.0,0.0,1,1,0
350,'1',1,1,1,77.099196,23.790517,0.0,0.0,0.0,0.0,1,1,0
...
0 / END OF LOAD DATA BEGIN FIXED SHUNT DATA
0 / END OF FIXED SHUNT DATA BEGIN GENERATOR DATA
511,'1',251.91002,59.82838,146.041,-31.848,1.036,0,286.92,0.0,1.0,0.0,0.0,1.0,1,1.0,286.917,111.868,1,1.0,0,1.0,0,1.0,0,1.0,0,1.0
512,'1',286.917,99.63394,146.041,-31.848,1.036,0,286.92,0.0,1.0,0.0,0.0,1.0,1,1.0,286.917,136.713,1,1.0,0,1.0,0,1.0,0,1.0,0,1.0
513,'1',253.11002,93.586402,146.041,-31.848,1.036,0,286.92,0.0,1.0,0.0,0.0,1.0,1,1.0,286.917,117.88,1,1.0,0,1.0,0,1.0,0,1.0,0,1.0
514,'1',286.917,92.701523,146.041,-31.848,1.036,0,286.92,0.0,1.0,0.0,0.0,1.0,1,1.0,286.917,119.916,1,1.0,0,1.0,0,1.0,0,1.0,0,1.0
515,'1',229.40002,102.3356,146.041,-31.848,1.036,0,286.92,0.0,1.0,0.0,0.0,1.0,1,1.0,286.917,143.131,1,1.0,0,1.0,0,1.0,0,1.0,0,1.0
516,'1',190.32505,53.555614,146.041,-31.848,1.014096,0,286.92,0.0,1.0,0.0,0.0,1.0,0,1.0,286.917,65.487,1,1.0,0,1.0,0,1.0,0,1.0,0,1.0
518,'1',26.5,-2.942,13.488,-2.942,1.0407184,0,26.5,0.0,1.0,0.0,0.0,1.0,1,1.0,26.5,8.564,1,1.0,0,1.0,0,1.0,0,1.0,0,1.0
522,'1',598.18159,235.81285,301.245,-67.125,1.0399402,0,818.6,0.0,1.0,0.0,0.0,1.0,0,1.0,818.6,393.254,1,1.0,0,1.0,0,1.0,0,1.0,0,1.0
523,'1',818.6,301.245,301.245,-67.125,1.0733145,0,818.6,0.0,1.0,0.0,0.0,1.0,1,1.0,818.6,92.398,1,1.0,0,1.0,0,1.0,0,1.0,0,1.0
525,'1',5.933,0.0,3.02,-0.659,1.0458837,0,5.93,0.0,1.0,0.0,0.0,1.0,0,1.0,5.933,1.3,1,1.0,0,1.0,0,1.0,0,1.0,0,1.0
525,'2',5.933,0.0,3.02,-0.659,1.0458837,0,5.93,0.0,1.0,0.0,0.0,1.0,0,1.0,5.933,1.833,1,1.0,0,1.0,0,1.0,0,1.0,0,1.0
525,'3',5.933,0.0,3.02,-0.659,1.0458837,0,5.93,0.0,1.0,0.0,0.0,1.0,0,1.0,5.933,2.076,1,1.0,0,1.0,0,1.0,0,1.0,0,1.0
525,'4',5.933,0.0,3.02,-0.659,1.0458837,0,5.93,0.0,1.0,0.0,0.0,1.0,0,1.0,5.933,1.712,1,1.0,0,1.0,0,1.0,0,1.0,0,1.0
525,'5',5.933,0.0,3.02,-0.659,1.0458837,0,5.93,0.0,1.0,0.0,0.0,1.0,0,1.0,5.933,1.58,1,1.0,0,1.0,0,1.0,0,1.0,0,1.0
525,'6',5.933,0.0,3.02,-0.659,1.0458837,0,5.93,0.0,1.0,0.0,0.0,1.0,0,1.0,5.933,1.676,1,1.0,0,1.0,0,1.0,0,1.0,0,1.0
529,'1',244.8,0.0,124.603,-27.173,1.0557387,0,244.8,0.0,1.0,0.0,0.0,1.0,0,1.0,244.8,40.619,1,1.0,0,1.0,0,1.0,0,1.0,0,1.0
530,'1',244.8,102.94882,124.603,-27.173,1.0045,0,244.8,0.0,1.0,0.0,0.0,1.0,1,1.0,244.8,50.102,1,1.0,0,1.0,0,1.0,0,1.0,0,1.0
531,'1',244.8,124.603,124.603,-27.173,1.0038668,0,244.8,0.0,1.0,0.0,0.0,1.0,1,1.0,244.8,103.321,1,1.0,0,1.0,0,1.0,0,1.0,0,1.0
532,'1',175.98745,89.888932,124.603,-27.173,0.95976244,0,244.8,0.0,1.0,0.0,0.0,1.0,0,1.0,244.8,92.537,1,1.0,0,1.0,0,1.0,0,1.0,0,1.0
533,'1',244.8,100.54741,124.603,-27.173,1.0045,0,244.8,0.0,1.0,0.0,0.0,1.0,1,1.0,244.8,82.618,1,1.0,0,1.0,0,1.0,0,1.0,0,1.0
536,'1',402.0,-49.044,187.332,-49.044,1.0409239,0,402.0,0.0,1.0,0.0,0.0,1.0,1,1.0,402.0,150.56,1,1.0,0,1.0,0,1.0,0,1.0,0,1.0
537,'1',402.0,-49.044,187.332,-49.044,1.0435941,0,402.0,0.0,1.0,0.0,0.0,1.0,1,1.0,402.0,171.138,1,1.0,0,1.0,0,1.0,0,1.0,0,1.0
539,'1',3.667,-0.447,1.709,-0.447,1.0554004,0,3.67,0.0,1.0,0.0,0.0,1.0,1,1.0,3.667,0.435,1,1.0,0,1.0,0,1.0,0,1.0,0,1.0
539,'2',3.667,-0.447,1.709,-0.447,1.0554004,0,3.67,0.0,1.0,0.0,0.0,1.0,1,1.0,3.667,1.28,1,1.0,0,1.0,0,1.0,0,1.0,0,1.0
539,'3',2.4048335,-0.447,1.709,-0.447,1.0554004,0,3.67,0.0,1.0,0.0,0.0,1.0,0,1.0,3.667,1.817,1,1.0,0,1.0,0,1.0,0,1.0,0,1.0
539,'4',2.8095965,-0.447,1.709,-0.447,1.0554004,0,3.67,0.0,1.0,0.0,0.0,1.0,0,1.0,3.667,0.899,1,1.0,0,1.0,0,1.0,0,1.0,0,1.0
539,'5',3.667,0.0,1.709,-0.447,1.0554004,0,3.67,0.0,1.0,0.0,0.0,1.0,0,1.0,3.667,1.289,1,1.0,0,1.0,0,1.0,0,1.0,0,1.0
539,'6',3.667,0.0,1.709,-0.447,1.0554004,0,3.67,0.0,1.0,0.0,0.0,1.0,0,1.0,3.667,1.159,1,1.0,0,1.0,0,1.0,0,1.0,0,1.0
542,'1',108.61578,88.43,88.43,-19.284,0.97841022,0,173.73,0.0,1.0,0.0,0.0,1.0,0,1.0,173.733,56.291,1,1.0,0,1.0,0,1.0,0,1.0,0,1.0
543,'1',173.733,88.43,88.43,-19.284,1.0247916,0,173.73,0.0,1.0,0.0,0.0,1.0,1,1.0,173.733,50.048,1,1.0,0,1.0,0,1.0,0,1.0,0,1.0
544,'1',173.733,88.43,88.43,-19.284,1.0256327,0,173.73,0.0,1.0,0.0,0.0,1.0,1,1.0,173.733,80.656,1,1.0,0,1.0,0,1.0,0,1.0,0,1.0
545,'1',110.40409,88.43,88.43,-19.284,0.98419963,0,173.73,0.0,1.0,0.0,0.0,1.0,0,1.0,173.733,73.088,1,1.0,0,1.0,0,1.0,0,1.0,0,1.0
546,'1',173.733,88.43,88.43,-19.284,1.0228815,0,173.73,0.0,1.0,0.0,0.0,1.0,1,1.0,173.733,59.116,1,1.0,0,1.0,0,1.0,0,1.0,0,1.0
547,'1',118.23853,88.43,88.43,-19.284,1.0019864,0,173.73,0.0,1.0,0.0,0.0,1.0,0,1.0,173.733,49.273,1,1.0,0,1.0,0,1.0,0,1.0,0,1.0
551,'1',1080.0,45.432385,397.44,-88.56,1.045,0,1080.0,0.0,1.0,0.0,0.0,1.0,1,1.0,1080.0,168.179,1,1.0,0,1.0,0,1.0,0,1.0,0,1.0
552,'1',1080.0,37.129252,397.44,-88.56,1.045,0,1080.0,0.0,1.0,0.0,0.0,1.0,1,1.0,1080.0,172.722,1,1.0,0,1.0,0,1.0,0,1.0,0,1.0
554,'1',68.4,34.816,34.816,-7.592,1.0370805,0,68.4,0.0,1.0,0.0,0.0,1.0,1,1.0,68.4,31.465,1,1.0,0,1.0,0,1.0,0,1.0,0,1.0
554,'2',68.4,34.816,34.816,-7.592,1.0370805,0,68.4,0.0,1.0,0.0,0.0,1.0,1,1.0,68.4,18.691,1,1.0,0,1.0,0,1.0,0,1.0,0,1.0
554,'3',49.982663,31.841583,34.816,-7.592,1.0370805,0,68.4,0.0,1.0,0.0,0.0,1.0,0,1.0,68.4,19.594,1,1.0,0,1.0,0,1.0,0,1.0,0,1.0
554,'4',68.4,34.816,34.816,-7.592,1.0370805,0,68.4,0.0,1.0,0.0,0.0,1.0,1,1.0,68.4,27.758,1,1.0,0,1.0,0,1.0,0,1.0,0,1.0
554,'5',46.551073,14.992618,34.816,-7.592,1.0370805,0,68.4,0.0,1.0,0.0,0.0,1.0,0,1.0,68.4,26.86,1,1.0,0,1.0,0,1.0,0,1.0,0,1.0
554,'6',68.4,34.816,34.816,-7.592,1.0370805,0,68.4,0.0,1.0,0.0,0.0,1.0,1,1.0,68.4,13.872,1,1.0,0,1.0,0,1.0,0,1.0,0,1.0
558,'1',86.933078,69.631,69.631,-15.185,0.97820752,0,136.8,0.0,1.0,0.0,0.0,1.0,0,1.0,136.8,14.056,1,1.0,0,1.0,0,1.0,0,1.0,0,1.0
559,'1',136.8,69.631,69.631,-15.185,1.0236017,0,136.8,0.0,1.0,0.0,0.0,1.0,1,1.0,136.8,64.405,1,1.0,0,1.0,0,1.0,0,1.0,0,1.0
560,'1',99.965325,69.631,69.631,-15.185,0.97245335,0,136.8,0.0,1.0,0.0,0.0,1.0,0,1.0,136.8,41.032,1,1.0,0,1.0,0,1.0,0,1.0,0,1.0
561,'1',136.8,69.631,69.631,-15.185,1.0252962,0,136.8,0.0,1.0,0.0,0.0,1.0,1,1.0,136.8,28.648,1,1.0,0,1.0,0,1.0,0,1.0,0,1.0
562,'1',136.8,69.631,69.631,-15.185,1.0232744,0,136.8,0.0,1.0,0.0,0.0,1.0,1,1.0,136.8,20.963,1,1.0,0,1.0,0,1.0,0,1.0,0,1.0
563,'1',95.249131,69.631,69.631,-15.185,0.96676649,0,136.8,0.0,1.0,0.0,0.0,1.0,0,1.0,136.8,36.541,1,1.0,0,1.0,0,1.0,0,1.0,0,1.0
567,'1',213.03704,287.97677,361.645,-78.865,1.018,0,710.5,0.0,1.0,0.0,0.0,1.0,1,1.0,710.5,213.037,1,1.0,0,1.0,0,1.0,0,1.0,0,1.0
568,'1',245.65004,296.24282,361.645,-78.865,1.018,0,710.5,0.0,1.0,0.0,0.0,1.0,1,1.0,710.5,129.441,1,1.0,0,1.0,0,1.0,0,1.0,0,1.0
569,'1',336.19204,281.54554,361.645,-78.865,1.018,0,710.5,0.0,1.0,0.0,0.0,1.0,1,1.0,710.5,336.192,1,1.0,0,1.0,0,1.0,0,1.0,0,1.0
570,'1',203.02004,295.53004,361.645,-78.865,1.018,0,710.5,0.0,1.0,0.0,0.0,1.0,1,1.0,710.5,76.15,1,1.0,0,1.0,0,1.0,0,1.0,0,1.0
571,'1',571.709,0.0,361.645,-78.865,1.0570873,0,710.5,0.0,1.0,0.0,0.0,1.0,0,1.0,710.5,73.471,1,1.0,0,1.0,0,1.0,0,1.0,0,1.0
572,'1',418.146,0.0,361.645,-78.865,1.0570873,0,710.5,0.0,1.0,0.0,0.0,1.0,0,1.0,710.5,216.649,1,1.0,0,1.0,0,1.0,0,1.0,0,1.0
574,'1',124.0,4.5584394,57.784,-15.128,1.018,0,124.0,0.0,1.0,0.0,0.0,1.0,1,1.0,124.0,57.005,1,1.0,0,1.0,0,1.0,0,1.0,0,1.0
575,'1',124.0,3.8026687,57.784,-15.128,1.018,0,124.0,0.0,1.0,0.0,0.0,1.0,1,1.0,124.0,47.6,1,1.0,0,1.0,0,1.0,0,1.0,0,1.0
576,'1',124.0,3.6402182,57.784,-15.128,1.018,0,124.0,0.0,1.0,0.0,0.0,1.0,1,1.0,124.0,50.185,1,1.0,0,1.0,0,1.0,0,1.0,0,1.0
577,'1',83.623156,1.3171024,57.784,-15.128,1.018,0,124.0,0.0,1.0,0.0,0.0,1.0,1,1.0,124.0,12.7,1,1.0,0,1.0,0,1.0,0,1.0,0,1.0
578,'1',86.787049,0.68748943,57.784,-15.128,1.0165584,0,124.0,0.0,1.0,0.0,0.0,1.0,0,1.0,124.0,17.706,1,1.0,0,1.0,0,1.0,0,1.0,0,1.0
579,'1',36.442008,2.2287136,57.784,-15.128,1.018,0,124.0,0.0,1.0,0.0,0.0,1.0,1,1.0,124.0,36.442,1,1.0,0,1.0,0,1.0,0,1.0,0,1.0
581,'1',8.0719578,9.825,9.825,-2.572,1.0422914,0,21.08,0.0,1.0,0.0,0.0,1.0,1,1.0,21.083,5.483,1,1.0,0,1.0,0,1.0,0,1.0,0,1.0
582,'1',21.083,-2.572,9.825,-2.572,1.0458683,0,21.08,0.0,1.0,0.0,0.0,1.0,1,1.0,21.083,6.229,1,1.0,0,1.0,0,1.0,0,1.0,0,1.0
582,'2',21.083,-2.572,9.825,-2.572,1.0458683,0,21.08,0.0,1.0,0.0,0.0,1.0,1,1.0,21.083,6.254,1,1.0,0,1.0,0,1.0,0,1.0,0,1.0
582,'3',21.083,-2.572,9.825,-2.572,1.0458683,0,21.08,0.0,1.0,0.0,0.0,1.0,1,1.0,21.083,7.482,1,1.0,0,1.0,0,1.0,0,1.0,0,1.0
582,'4',21.083,-2.572,9.825,-2.572,1.0458683,0,21.08,0.0,1.0,0.0,0.0,1.0,1,1.0,21.083,4.317,1,1.0,0,1.0,0,1.0,0,1.0,0,1.0
582,'5',21.083,-2.572,9.825,-2.572,1.0458683,0,21.08,0.0,1.0,0.0,0.0,1.0,1,1.0,21.083,7.684,1,1.0,0,1.0,0,1.0,0,1.0,0,1.0
587,'1',181.0,92.129,92.129,-20.091,1.0226883,0,181.0,0.0,1.0,0.0,0.0,1.0,1,1.0,181.0,57.044,1,1.0,0,1.0,0,1.0,0,1.0,0,1.0
588,'1',181.0,77.375623,92.129,-20.091,1.0185,0,181.0,0.0,1.0,0.0,0.0,1.0,1,1.0,181.0,65.155,1,1.0,0,1.0,0,1.0,0,1.0,0,1.0
590,'1',15.7,-1.743,7.991,-1.743,1.0469869,0,15.7,0.0,1.0,0.0,0.0,1.0,1,1.0,15.7,2.126,1,1.0,0,1.0,0,1.0,0,1.0,0,1.0
590,'2',11.286338,-1.743,7.991,-1.743,1.0469869,0,15.7,0.0,1.0,0.0,0.0,1.0,0,1.0,15.7,5.004,1,1.0,0,1.0,0,1.0,0,1.0,0,1.0
594,'1',323.75,103.46734,164.789,-35.936,1.0245,0,323.75,0.0,1.0,0.0,0.0,1.0,1,1.0,323.75,142.567,1,1.0,0,1.0,0,1.0,0,1.0,0,1.0
595,'1',323.75,0.0,164.789,-35.936,1.0465844,0,323.75,0.0,1.0,0.0,0.0,1.0,0,1.0,323.75,54.778,1,1.0,0,1.0,0,1.0,0,1.0,0,1.0
596,'1',323.75,85.282626,164.789,-35.936,1.0245,0,323.75,0.0,1.0,0.0,0.0,1.0,1,1.0,323.75,147.206,1,1.0,0,1.0,0,1.0,0,1.0,0,1.0
597,'1',323.75,71.609642,164.789,-35.936,1.0245,0,323.75,0.0,1.0,0.0,0.0,1.0,1,1.0,323.75,46.804,1,1.0,0,1.0,0,1.0,0,1.0,0,1.0
599,'1',6.8,0.0,3.169,-0.83,1.0414592,0,6.8,0.0,1.0,0.0,0.0,1.0,0,1.0,6.8,3.324,1,1.0,0,1.0,0,1.0,0,1.0,0,1.0
599,'2',6.8,0.0,3.169,-0.83,1.0414592,0,6.8,0.0,1.0,0.0,0.0,1.0,0,1.0,6.8,0.698,1,1.0,0,1.0,0,1.0,0,1.0,0,1.0
599,'3',6.8,0.0,3.169,-0.83,1.0414592,0,6.8,0.0,1.0,0.0,0.0,1.0,0,1.0,6.8,0.905,1,1.0,0,1.0,0,1.0,0,1.0,0,1.0
599,'4',6.8,0.0,3.169,-0.83,1.0414592,0,6.8,0.0,1.0,0.0,0.0,1.0,0,1.0,6.8,1.101,1,1.0,0,1.0,0,1.0,0,1.0,0,1.0
599,'5',6.8,0.0,3.169,-0.83,1.0414592,0,6.8,0.0,1.0,0.0,0.0,1.0,0,1.0,6.8,3.201,1,1.0,0,1.0,0,1.0,0,1.0,0,1.0
599,'6',6.8,-0.83,3.169,-0.83,1.0414592,0,6.8,0.0,1.0,0.0,0.0,1.0,1,1.0,6.8,2.569,1,1.0,0,1.0,0,1.0,0,1.0,0,1.0
1208,'1',11.2,0.0,5.701,-1.243,1.0498073,0,11.2,0.0,1.0,0.0,0.0,1.0,0,1.0,11.2,2.558,1,1.0,0,1.0,0,1.0,0,1.0,0,1.0
1208,'2',11.2,0.0,5.701,-1.243,1.0498073,0,11.2,0.0,1.0,0.0,0.0,1.0,0,1.0,11.2,3.605,1,1.0,0,1.0,0,1.0,0,1.0,0,1.0
1212,'1',142.5,69.381922,72.532,-15.818,1.06,0,142.5,0.0,1.0,0.0,0.0,1.0,1,1.0,142.5,40.985,1,1.0,0,1.0,0,1.0,0,1.0,0,1.0
1213,'1',142.5,71.5577,72.532,-15.818,1.0575,0,142.5,0.0,1.0,0.0,0.0,1.0,1,1.0,142.5,55.372,1,1.0,0,1.0,0,1.0,0,1.0,0,1.0
1214,'1',142.5,67.626227,72.532,-15.818,1.0725,0,142.5,0.0,1.0,0.0,0.0,1.0,1,1.0,142.5,30.813,1,1.0,0,1.0,0,1.0,0,1.0,0,1.0
1216,'1',54.390956,-9.657,44.283,-9.657,1.0513275,0,87.0,0.0,1.0,0.0,0.0,1.0,0,1.0,87.0,27.249,1,1.0,0,1.0,0,1.0,0,1.0,0,1.0
1216,'2',87.0,-9.657,44.283,-9.657,1.0513275,0,87.0,0.0,1.0,0.0,0.0,1.0,1,1.0,87.0,17.194,1,1.0,0,1.0,0,1.0,0,1.0,0,1.0
1219,'1',84.2,19.989398,39.237,-10.272,1.0425,0,84.2,0.0,1.0,0.0,0.0,1.0,1,1.0,84.2,27.937,1,1.0,0,1.0,0,1.0,0,1.0,0,1.0
1219,'2',84.2,19.989398,39.237,-10.272,1.0425,0,84.2,0.0,1.0,0.0,0.0,1.0,1,1.0,84.2,9.3,1,1.0,0,1.0,0,1.0,0,1.0,0,1.0
1219,'3',84.2,19.989398,39.237,-10.272,1.0425,0,84.2,0.0,1.0,0.0,0.0,1.0,1,1.0,84.2,10.695,1,1.0,0,1.0,0,1.0,0,1.0,0,1.0
1219,'4',84.2,19.989398,39.237,-10.272,1.0425,0,84.2,0.0,1.0,0.0,0.0,1.0,1,1.0,84.2,23.64,1,1.0,0,1.0,0,1.0,0,1.0,0,1.0
1219,'5',84.2,19.989398,39.237,-10.272,1.0425,0,84.2,0.0,1.0,0.0,0.0,1.0,1,1.0,84.2,29.358,1,1.0,0,1.0,0,1.0,0,1.0,0,1.0
1219,'6',64.538494,17.293363,39.237,-10.272,1.0425,0,84.2,0.0,1.0,0.0,0.0,1.0,0,1.0,84.2,26.019,1,1.0,0,1.0,0,1.0,0,1.0,0,1.0
1226,'1',198.88,101.23,101.23,-22.076,1.0203366,0,198.88,0.0,1.0,0.0,0.0,1.0,1,1.0,198.88,47.086,1,1.0,0,1.0,0,1.0,0,1.0,0,1.0
1227,'1',141.78001,101.23,101.23,-22.076,1.0220865,0,198.88,0.0,1.0,0.0,0.0,1.0,1,1.0,198.88,56.121,1,1.0,0,1.0,0,1.0,0,1.0,0,1.0
1228,'1',116.66001,101.23,101.23,-22.076,1.0226446,0,198.88,0.0,1.0,0.0,0.0,1.0,1,1.0,198.88,61.855,1,1.0,0,1.0,0,1.0,0,1.0,0,1.0
1229,'1',173.55001,101.23,101.23,-22.076,1.0240203,0,198.88,0.0,1.0,0.0,0.0,1.0,1,1.0,198.88,72.249,1,1.0,0,1.0,0,1.0,0,1.0,0,1.0
1230,'1',125.69001,101.23,101.23,-22.076,1.0220084,0,198.88,0.0,1.0,0.0,0.0,1.0,1,1.0,198.88,76.895,1,1.0,0,1.0,0,1.0,0,1.0,0,1.0
1232,'1',5.35,0.0,2.723,-0.594,1.0350379,0,5.35,0.0,1.0,0.0,0.0,1.0,0,1.0,5.35,2.222,1,1.0,0,1.0,0,1.0,0,1.0,0,1.0
1233,'1',5.35,0.0,2.723,-0.594,1.0537989,0,5.35,0.0,1.0,0.0,0.0,1.0,0,1.0,5.35,2.517,1,1.0,0,1.0,0,1.0,0,1.0,0,1.0
1237,'1',84.070013,48.270763,104.701,-22.833,1.0585,0,205.7,0.0,1.0,0.0,0.0,1.0,1,1.0,205.7,53.667,1,1.0,0,1.0,0,1.0,0,1.0,0,1.0
1238,'1',65.850013,19.666592,104.701,-22.833,1.0585,0,205.7,0.0,1.0,0.0,0.0,1.0,1,1.0,205.7,30.887,1,1.0,0,1.0,0,1.0,0,1.0,0,1.0
1243,'1',113.86001,101.495,101.495,-22.133,1.0224611,0,199.4,0.0,1.0,0.0,0.0,1.0,1,1.0,199.4,92.481,1,1.0,0,1.0,0,1.0,0,1.0,0,1.0
1244,'1',193.2759,101.495,101.495,-22.133,1.0235623,0,199.4,0.0,1.0,0.0,0.0,1.0,1,1.0,199.4,47.17,1,1.0,0,1.0,0,1.0,0,1.0,0,1.0
1246,'1',42.0,0.0,21.378,-4.662,1.0368088,0,42.0,0.0,1.0,0.0,0.0,1.0,0,1.0,42.0,17.993,1,1.0,0,1.0,0,1.0,0,1.0,0,1.0
1251,'1',180.4,70.611052,91.824,-20.024,1.0475,0,180.4,0.0,1.0,0.0,0.0,1.0,1,1.0,180.4,18.965,1,1.0,0,1.0,0,1.0,0,1.0,0,1.0
1252,'1',116.04766,91.824,91.824,-20.024,1.0180602,0,180.4,0.0,1.0,0.0,0.0,1.0,0,1.0,180.4,28.596,1,1.0,0,1.0,0,1.0,0,1.0,0,1.0
1253,'1',180.4,91.824,91.824,-20.024,1.0505374,0,180.4,0.0,1.0,0.0,0.0,1.0,1,1.0,180.4,62.389,1,1.0,0,1.0,0,1.0,0,1.0,0,1.0
1256,'1',185.04002,110.86481,170.888,-37.266,1.054,0,335.73,0.0,1.0,0.0,0.0,1.0,1,1.0,335.733,84.582,1,1.0,0,1.0,0,1.0,0,1.0,0,1.0
1257,'1',220.30995,26.553336,170.888,-37.266,1.0413705,0,335.73,0.0,1.0,0.0,0.0,1.0,0,1.0,335.733,129.272,1,1.0,0,1.0,0,1.0,0,1.0,0,1.0
1258,'1',167.99002,34.257854,170.888,-37.266,1.054,0,335.73,0.0,1.0,0.0,0.0,1.0,1,1.0,335.733,56.164,1,1.0,0,1.0,0,1.0,0,1.0,0,1.0
1259,'1',199.96659,23.202592,170.888,-37.266,1.0413705,0,335.73,0.0,1.0,0.0,0.0,1.0,0,1.0,335.733,70.447,1,1.0,0,1.0,0,1.0,0,1.0,0,1.0
1260,'1',162.71002,58.099124,170.888,-37.266,1.054,0,335.73,0.0,1.0,0.0,0.0,1.0,1,1.0,335.733,47.366,1,1.0,0,1.0,0,1.0,0,1.0,0,1.0
1261,'1',245.33378,41.735338,170.888,-37.266,1.0413705,0,335.73,0.0,1.0,0.0,0.0,1.0,0,1.0,335.733,80.769,1,1.0,0,1.0,0,1.0,0,1.0,0,1.0
1262,'1',1.7,0.0,0.865,-0.189,1.0413705,0,1.7,0.0,1.0,0.0,0.0,1.0,0,1.0,1.7,0.215,1,1.0,0,1.0,0,1.0,0,1.0,0,1.0
1266,'1',117.172,0.0,216.457,-56.669,1.0439564,0,464.5,0.0,1.0,0.0,0.0,1.0,0,1.0,464.5,117.172,1,1.0,0,1.0,0,1.0,0,1.0,0,1.0
1267,'1',81.768028,5.1860009,216.457,-56.669,1.045,0,464.5,0.0,1.0,0.0,0.0,1.0,1,1.0,464.5,81.768,1,1.0,0,1.0,0,1.0,0,1.0,0,1.0
1271,'1',120.72958,27.819773,92.638,-20.202,0.98558169,0,182.0,0.0,1.0,0.0,0.0,1.0,0,1.0,182.0,82.486,1,1.0,0,1.0,0,1.0,0,1.0,0,1.0
1272,'1',182.0,16.726344,92.638,-20.202,1.0,0,182.0,0.0,1.0,0.0,0.0,1.0,1,1.0,182.0,78.655,1,1.0,0,1.0,0,1.0,0,1.0,0,1.0
1273,'1',129.72778,28.935359,92.638,-20.202,0.98558169,0,182.0,0.0,1.0,0.0,0.0,1.0,0,1.0,182.0,40.613,1,1.0,0,1.0,0,1.0,0,1.0,0,1.0
1274,'1',159.20001,45.954286,92.638,-20.202,1.0,0,182.0,0.0,1.0,0.0,0.0,1.0,1,1.0,182.0,67.977,1,1.0,0,1.0,0,1.0,0,1.0,0,1.0
1277,'1',45.533,0.0,23.176,-5.054,1.0573943,0,45.53,0.0,1.0,0.0,0.0,1.0,0,1.0,45.533,22.712,1,1.0,0,1.0,0,1.0,0,1.0,0,1.0
1277,'2',45.533,0.0,23.176,-5.054,1.0573943,0,45.53,0.0,1.0,0.0,0.0,1.0,0,1.0,45.533,4.714,1,1.0,0,1.0,0,1.0,0,1.0,0,1.0
1277,'3',45.533,0.0,23.176,-5.054,1.0573943,0,45.53,0.0,1.0,0.0,0.0,1.0,0,1.0,45.533,8.36,1,1.0,0,1.0,0,1.0,0,1.0,0,1.0
1281,'1',208.36002,84.246554,127.555,-27.817,1.009,0,250.6,0.0,1.0,0.0,0.0,1.0,1,1.0,250.6,39.394,1,1.0,0,1.0,0,1.0,0,1.0,0,1.0
1282,'1',186.83002,78.779589,127.555,-27.817,1.009,0,250.6,0.0,1.0,0.0,0.0,1.0,1,1.0,250.6,91.175,1,1.0,0,1.0,0,1.0,0,1.0,0,1.0
1283,'1',154.60068,93.974779,127.555,-27.817,1.009,0,250.6,0.0,1.0,0.0,0.0,1.0,1,1.0,250.6,104.51,1,1.0,0,1.0,0,1.0,0,1.0,0,1.0
1284,'1',173.69002,75.479579,127.555,-27.817,1.009,0,250.6,0.0,1.0,0.0,0.0,1.0,1,1.0,250.6,122.414,1,1.0,0,1.0,0,1.0,0,1.0,0,1.0
1285,'1',174.52002,80.18441,127.555,-27.817,1.009,0,250.6,0.0,1.0,0.0,0.0,1.0,1,1.0,250.6,60.398,1,1.0,0,1.0,0,1.0,0,1.0,0,1.0
1289,'1',128.14001,30.021425,109.299,-23.835,1.0585,0,214.73,0.0,1.0,0.0,0.0,1.0,1,1.0,214.733,106.491,1,1.0,0,1.0,0,1.0,0,1.0,0,1.0
1290,'1',214.733,83.220167,109.299,-23.835,1.0585,0,214.73,0.0,1.0,0.0,0.0,1.0,1,1.0,214.733,100.357,1,1.0,0,1.0,0,1.0,0,1.0,0,1.0
1291,'1',99.000013,49.429905,109.299,-23.835,1.0585,0,214.73,0.0,1.0,0.0,0.0,1.0,1,1.0,214.733,70.061,1,1.0,0,1.0,0,1.0,0,1.0,0,1.0
1295,'1',170.84326,164.789,164.789,-35.936,1.0057831,0,323.75,0.0,1.0,0.0,0.0,1.0,0,1.0,323.75,124.809,1,1.0,0,1.0,0,1.0,0,1.0,0,1.0
1296,'1',158.99002,164.789,164.789,-35.936,1.0317254,0,323.75,0.0,1.0,0.0,0.0,1.0,1,1.0,323.75,158.99,1,1.0,0,1.0,0,1.0,0,1.0,0,1.0
1297,'1',201.76002,164.789,164.789,-35.936,1.0346523,0,323.75,0.0,1.0,0.0,0.0,1.0,1,1.0,323.75,120.44,1,1.0,0,1.0,0,1.0,0,1.0,0,1.0
1298,'1',174.76002,164.789,164.789,-35.936,1.0365498,0,323.75,0.0,1.0,0.0,0.0,1.0,1,1.0,323.75,137.507,1,1.0,0,1.0,0,1.0,0,1.0,0,1.0
1300,'1',2.9,0.0,1.476,-0.322,1.0383855,0,2.9,0.0,1.0,0.0,0.0,1.0,0,1.0,2.9,1.047,1,1.0,0,1.0,0,1.0,0,1.0,0,1.0
1300,'2',48.923075,26.910929,35.579,-7.759,1.0383855,0,69.9,0.0,1.0,0.0,0.0,1.0,0,1.0,69.9,30.179,1,1.0,0,1.0,0,1.0,0,1.0,0,1.0
1300,'3',69.9,35.579,35.579,-7.759,1.0383855,0,69.9,0.0,1.0,0.0,0.0,1.0,1,1.0,69.9,28.041,1,1.0,0,1.0,0,1.0,0,1.0,0,1.0
1300,'4',69.9,35.579,35.579,-7.759,1.0383855,0,69.9,0.0,1.0,0.0,0.0,1.0,1,1.0,69.9,10.434,1,1.0,0,1.0,0,1.0,0,1.0,0,1.0
1300,'5',69.9,35.579,35.579,-7.759,1.0383855,0,69.9,0.0,1.0,0.0,0.0,1.0,1,1.0,69.9,23.393,1,1.0,0,1.0,0,1.0,0,1.0,0,1.0
1301,'1',2.9,0.0,1.476,-0.322,1.0384425,0,2.9,0.0,1.0,0.0,0.0,1.0,0,1.0,2.9,0.497,1,1.0,0,1.0,0,1.0,0,1.0,0,1.0
1303,'1',118.90001,38.868973,116.782,-25.467,1.04,0,229.43,0.0,1.0,0.0,0.0,1.0,1,1.0,229.433,45.211,1,1.0,0,1.0,0,1.0,0,1.0,0,1.0
1303,'2',122.86001,38.868973,116.782,-25.467,1.04,0,229.43,0.0,1.0,0.0,0.0,1.0,1,1.0,229.433,51.807,1,1.0,0,1.0,0,1.0,0,1.0,0,1.0
1303,'3',224.81661,38.868973,116.782,-25.467,1.04,0,229.43,0.0,1.0,0.0,0.0,1.0,1,1.0,229.433,88.194,1,1.0,0,1.0,0,1.0,0,1.0,0,1.0
1308,'1',175.8,-19.514,89.482,-19.514,1.0371579,0,175.8,0.0,1.0,0.0,0.0,1.0,1,1.0,175.8,61.666,1,1.0,0,1.0,0,1.0,0,1.0,0,1.0
1309,'1',123.04239,-19.514,89.482,-19.514,1.0433727,0,175.8,0.0,1.0,0.0,0.0,1.0,0,1.0,175.8,46.674,1,1.0,0,1.0,0,1.0,0,1.0,0,1.0
1310,'1',175.8,-19.514,89.482,-19.514,1.0368346,0,175.8,0.0,1.0,0.0,0.0,1.0,1,1.0,175.8,75.957,1,1.0,0,1.0,0,1.0,0,1.0,0,1.0
1311,'1',175.8,-19.514,89.482,-19.514,1.0336907,0,175.8,0.0,1.0,0.0,0.0,1.0,1,1.0,175.8,23.848,1,1.0,0,1.0,0,1.0,0,1.0,0,1.0
1313,'1',0.81717671,-0.146,0.559,-0.146,1.0437844,0,1.2,0.0,1.0,0.0,0.0,1.0,0,1.0,1.2,0.38,1,1.0,0,1.0,0,1.0,0,1.0,0,1.0
1313,'10',8.333,0.0,3.883,-1.017,1.0437844,0,8.33,0.0,1.0,0.0,0.0,1.0,0,1.0,8.333,1.146,1,1.0,0,1.0,0,1.0,0,1.0,0,1.0
1313,'2',1.2,-0.146,0.559,-0.146,1.0437844,0,1.2,0.0,1.0,0.0,0.0,1.0,1,1.0,1.2,0.418,1,1.0,0,1.0,0,1.0,0,1.0,0,1.0
1313,'3',2.5,-0.305,1.165,-0.305,1.0437844,0,2.5,0.0,1.0,0.0,0.0,1.0,1,1.0,2.5,0.399,1,1.0,0,1.0,0,1.0,0,1.0,0,1.0
1313,'4',1.6406195,-0.305,1.165,-0.305,1.0437844,0,2.5,0.0,1.0,0.0,0.0,1.0,0,1.0,2.5,0.615,1,1.0,0,1.0,0,1.0,0,1.0,0,1.0
1313,'5',8.333,-1.017,3.883,-1.017,1.0437844,0,8.33,0.0,1.0,0.0,0.0,1.0,1,1.0,8.333,2.53,1,1.0,0,1.0,0,1.0,0,1.0,0,1.0
1313,'6',8.333,-1.017,3.883,-1.017,1.0437844,0,8.33,0.0,1.0,0.0,0.0,1.0,1,1.0,8.333,2.739,1,1.0,0,1.0,0,1.0,0,1.0,0,1.0
1313,'7',8.333,-1.017,3.883,-1.017,1.0437844,0,8.33,0.0,1.0,0.0,0.0,1.0,1,1.0,8.333,3.593,1,1.0,0,1.0,0,1.0,0,1.0,0,1.0
1313,'8',8.333,-1.017,3.883,-1.017,1.0437844,0,8.33,0.0,1.0,0.0,0.0,1.0,1,1.0,8.333,2.702,1,1.0,0,1.0,0,1.0,0,1.0,0,1.0
1313,'9',8.333,0.0,3.883,-1.017,1.0437844,0,8.33,0.0,1.0,0.0,0.0,1.0,0,1.0,8.333,3.708,1,1.0,0,1.0,0,1.0,0,1.0,0,1.0
1318,'1',168.96001,4.6813992,101.8,-22.2,1.045,0,200.0,0.0,1.0,0.0,0.0,1.0,1,1.0,200.0,44.798,1,1.0,0,1.0,0,1.0,0,1.0,0,1.0
1319,'1',176.05001,5.1443422,101.8,-22.2,1.045,0,200.0,0.0,1.0,0.0,0.0,1.0,1,1.0,200.0,80.25,1,1.0,0,1.0,0,1.0,0,1.0,0,1.0
1320,'1',172.77001,5.4321297,101.8,-22.2,1.045,0,200.0,0.0,1.0,0.0,0.0,1.0,1,1.0,200.0,63.846,1,1.0,0,1.0,0,1.0,0,1.0,0,1.0
1325,'1',934.5,139.84198,435.477,-114.009,1.063,0,934.5,0.0,1.0,0.0,0.0,1.0,1,1.0,934.5,193.556,1,1.0,0,1.0,0,1.0,0,1.0,0,1.0
1326,'1',666.19494,155.39182,435.477,-114.009,1.063,0,934.5,0.0,1.0,0.0,0.0,1.0,1,1.0,934.5,382.669,1,1.0,0,1.0,0,1.0,0,1.0,0,1.0
1328,'1',56.7,-6.917,26.422,-6.917,1.050182,0,56.7,0.0,1.0,0.0,0.0,1.0,1,1.0,56.7,6.738,1,1.0,0,1.0,0,1.0,0,1.0,0,1.0
1328,'2',56.7,-6.917,26.422,-6.917,1.050182,0,56.7,0.0,1.0,0.0,0.0,1.0,1,1.0,56.7,10.159,1,1.0,0,1.0,0,1.0,0,1.0,0,1.0
1328,'3',56.7,-6.917,26.422,-6.917,1.050182,0,56.7,0.0,1.0,0.0,0.0,1.0,1,1.0,56.7,17.917,1,1.0,0,1.0,0,1.0,0,1.0,0,1.0
1328,'4',56.7,-6.917,26.422,-6.917,1.050182,0,56.7,0.0,1.0,0.0,0.0,1.0,1,1.0,56.7,16.45,1,1.0,0,1.0,0,1.0,0,1.0,0,1.0
1330,'1',55.322318,-9.546,43.774,-9.546,1.0537835,0,86.0,0.0,1.0,0.0,0.0,1.0,0,1.0,86.0,10.367,1,1.0,0,1.0,0,1.0,0,1.0,0,1.0
1330,'2',86.0,-9.546,43.774,-9.546,1.0537835,0,86.0,0.0,1.0,0.0,0.0,1.0,1,1.0,86.0,20.519,1,1.0,0,1.0,0,1.0,0,1.0,0,1.0
1330,'3',86.0,-9.546,43.774,-9.546,1.0537835,0,86.0,0.0,1.0,0.0,0.0,1.0,1,1.0,86.0,31.997,1,1.0,0,1.0,0,1.0,0,1.0,0,1.0
1332,'1',1.0,0.0,0.0,0.0,1.0482032,0,1.0,0.0,1.0,0.0,0.0,1.0,1,1.0,1.0,0.404,1,1.0,0,1.0,0,1.0,0,1.0,0,1.0
1332,'2',2.7,0.0,0.0,0.0,1.0482032,0,2.7,0.0,1.0,0.0,0.0,1.0,1,1.0,2.7,1.326,1,1.0,0,1.0,0,1.0,0,1.0,0,1.0
1332,'3',2.0050811,0.0,0.0,0.0,1.0482032,0,3.5,0.0,1.0,0.0,0.0,1.0,0,1.0,3.5,0.715,1,1.0,0,1.0,0,1.0,0,1.0,0,1.0
1332,'4',25.0,0.0,0.0,0.0,1.0482032,0,25.0,0.0,1.0,0.0,0.0,1.0,1,1.0,25.0,10.328,1,1.0,0,1.0,0,1.0,0,1.0,0,1.0
1336,'1',139.05,0.76230407,70.776,-15.435,1.0675,0,139.05,0.0,1.0,0.0,0.0,1.0,1,1.0,139.05,37.946,1,1.0,0,1.0,0,1.0,0,1.0,0,1.0
1337,'1',139.05,0.80550982,70.776,-15.435,1.0675,0,139.05,0.0,1.0,0.0,0.0,1.0,1,1.0,139.05,63.171,1,1.0,0,1.0,0,1.0,0,1.0,0,1.0
1341,'1',134.77,0.0,169.531,-44.384,1.0447698,0,363.8,0.0,1.0,0.0,0.0,1.0,0,1.0,363.8,134.77,1,1.0,0,1.0,0,1.0,0,1.0,0,1.0
1343,'1',46.8,23.821,23.821,-5.195,1.0358112,0,46.8,0.0,1.0,0.0,0.0,1.0,1,1.0,46.8,17.098,1,1.0,0,1.0,0,1.0,0,1.0,0,1.0
1345,'1',38.3,0.0,19.495,-4.251,1.0168673,0,38.3,0.0,1.0,0.0,0.0,1.0,0,1.0,38.3,4.815,1,1.0,0,1.0,0,1.0,0,1.0,0,1.0
1346,'1',38.3,0.0,19.495,-4.251,1.0399236,0,38.3,0.0,1.0,0.0,0.0,1.0,0,1.0,38.3,17.942,1,1.0,0,1.0,0,1.0,0,1.0,0,1.0
1346,'2',38.3,0.0,19.495,-4.251,1.0399236,0,38.3,0.0,1.0,0.0,0.0,1.0,0,1.0,38.3,17.183,1,1.0,0,1.0,0,1.0,0,1.0,0,1.0
1346,'3',38.3,0.0,19.495,-4.251,1.0399236,0,38.3,0.0,1.0,0.0,0.0,1.0,0,1.0,38.3,12.737,1,1.0,0,1.0,0,1.0,0,1.0,0,1.0
1348,'1',4.1,0.0,2.087,-0.455,1.054857,0,4.1,0.0,1.0,0.0,0.0,1.0,0,1.0,4.1,1.28,1,1.0,0,1.0,0,1.0,0,1.0,0,1.0
1348,'2',4.1,0.0,2.087,-0.455,1.054857,0,4.1,0.0,1.0,0.0,0.0,1.0,0,1.0,4.1,0.484,1,1.0,0,1.0,0,1.0,0,1.0,0,1.0
1350,'1',5.1,0.0,0.0,0.0,1.0546455,0,5.1,0.0,1.0,0.0,0.0,1.0,1,1.0,5.1,1.284,1,1.0,0,1.0,0,1.0,0,1.0,0,1.0
1350,'2',10.0,0.0,0.0,0.0,1.0546455,0,10.0,0.0,1.0,0.0,0.0,1.0,1,1.0,10.0,1.91,1,1.0,0,1.0,0,1.0,0,1.0,0,1.0
1352,'1',19.2,0.0,8.947,-2.342,1.0398576,0,19.2,0.0,1.0,0.0,0.0,1.0,0,1.0,19.2,3.432,1,1.0,0,1.0,0,1.0,0,1.0,0,1.0
1354,'1',26.6,0.0,13.539,-2.953,1.0489644,0,26.6,0.0,1.0,0.0,0.0,1.0,0,1.0,26.6,8.702,1,1.0,0,1.0,0,1.0,0,1.0,0,1.0
1356,'1',33.7,0.0,17.153,-3.741,1.0598534,0,33.7,0.0,1.0,0.0,0.0,1.0,0,1.0,33.7,11.2,1,1.0,0,1.0,0,1.0,0,1.0,0,1.0
1360,'1',167.07302,-32.892906,207.714,-45.297,1.036,0,408.08,0.0,1.0,0.0,0.0,1.0,1,1.0,408.083,167.073,1,1.0,0,1.0,0,1.0,0,1.0,0,1.0
1361,'1',44.635025,-45.297,207.714,-45.297,1.0387037,0,408.08,0.0,1.0,0.0,0.0,1.0,1,1.0,408.083,44.635,1,1.0,0,1.0,0,1.0,0,1.0,0,1.0
1362,'1',142.32402,-32.819853,207.714,-45.297,1.036,0,408.08,0.0,1.0,0.0,0.0,1.0,1,1.0,408.083,142.324,1,1.0,0,1.0,0,1.0,0,1.0,0,1.0
1363,'1',195.06402,-24.431245,207.714,-45.297,1.036,0,408.08,0.0,1.0,0.0,0.0,1.0,1,1.0,408.083,195.064,1,1.0,0,1.0,0,1.0,0,1.0,0,1.0
1364,'1',208.74788,-45.297,207.714,-45.297,1.043941,0,408.08,0.0,1.0,0.0,0.0,1.0,0,1.0,408.083,151.081,1,1.0,0,1.0,0,1.0,0,1.0,0,1.0
1365,'1',196.06263,-33.040718,207.714,-45.297,1.043941,0,408.08,0.0,1.0,0.0,0.0,1.0,0,1.0,408.083,82.263,1,1.0,0,1.0,0,1.0,0,1.0,0,1.0
1370,'1',138.412,0.0,212.321,-55.586,1.0337873,0,455.63,0.0,1.0,0.0,0.0,1.0,0,1.0,455.625,138.412,1,1.0,0,1.0,0,1.0,0,1.0,0,1.0
1371,'1',88.104,0.0,212.321,-55.586,1.0337873,0,455.63,0.0,1.0,0.0,0.0,1.0,0,1.0,455.625,88.104,1,1.0,0,1.0,0,1.0,0,1.0,0,1.0
1372,'1',105.861,0.0,212.321,-55.586,1.0337873,0,455.63,0.0,1.0,0.0,0.0,1.0,0,1.0,455.625,105.861,1,1.0,0,1.0,0,1.0,0,1.0,0,1.0
1373,'1',111.3,0.0,212.321,-55.586,1.0337873,0,455.63,0.0,1.0,0.0,0.0,1.0,0,1.0,455.625,111.3,1,1.0,0,1.0,0,1.0,0,1.0,0,1.0
...
0 / END OF GENERATOR DATA BEGIN BRANCH DATA
1,3,'1',0.00023182,0.00102493,0.0,99999.0,99999.0,99999.0,0.0,0.0,0.0,0.0,1,1,0.0,1,1.0,0,1.0,0,1.0,0,1.0
1,28,'1',0.00413857,0.0270728,0.00746341,219.62,219.62,219.62,0.0,0.0,0.0,0.0,1,1,0.0,1,1.0,0,1.0,0,1.0,0,1.0
1,174,'1',0.00529188,0.0209981,0.0166533,241.75,241.75,241.75,0.0,0.0,0.0,0.0,1,1,0.0,1,1.0,0,1.0,0,1.0,0,1.0
1,174,'2',0.00529188,0.0209981,0.0166533,241.75,241.75,241.75,0.0,0.0,0.0,0.0,1,1,0.0,1,1.0,0,1.0,0,1.0,0,1.0
1,247,'1',0.00712647,0.0357571,0.00985329,265.68,265.68,265.68,0.0,0.0,0.0,0.0,1,1,0.0,1,1.0,0,1.0,0,1.0,0,1.0
1,248,'1',0.00369663,0.021138,0.0100986,243.83,243.83,243.83,0.0,0.0,0.0,0.0,1,1,0.0,1,1.0,0,1.0,0,1.0,0,1.0
2,23,'1',0.0104592,0.0332497,0.00196885,79.04,79.04,79.04,0.0,0.0,0.0,0.0,1,1,0.0,1,1.0,0,1.0,0,1.0,0,1.0
2,23,'2',0.0104592,0.0332497,0.00196885,79.04,79.04,79.04,0.0,0.0,0.0,0.0,1,1,0.0,1,1.0,0,1.0,0,1.0,0,1.0
2,23,'3',0.0104592,0.0332497,0.00196885,79.04,79.04,79.04,0.0,0.0,0.0,0.0,1,1,0.0,1,1.0,0,1.0,0,1.0,0,1.0
4,128,'1',0.0132902,0.0268195,0.00578327,64.44,64.44,64.44,0.0,0.0,0.0,0.0,1,1,0.0,1,1.0,0,1.0,0,1.0,0,1.0
4,164,'1',0.0219322,0.0591199,0.0121884,52.0,52.0,52.0,0.0,0.0,0.0,0.0,1,1,0.0,1,1.0,0,1.0,0,1.0,0,1.0
5,4,'1',0.0108814,0.0309317,0.0010461,80.95,80.95,80.95,0.0,0.0,0.0,0.0,1,1,0.0,1,1.0,0,1.0,0,1.0,0,1.0
5,10,'1',0.00934009,0.0255526,0.00609131,108.59,108.59,108.59,0.0,0.0,0.0,0.0,1,1,0.0,1,1.0,0,1.0,0,1.0,0,1.0
6,13,'1',0.0134592,0.0297145,0.0015211,65.19,65.19,65.19,0.0,0.0,0.0,0.0,1,1,0.0,1,1.0,0,1.0,0,1.0,0,1.0
6,13,'2',0.0134592,0.0297145,0.0015211,65.19,65.19,65.19,0.0,0.0,0.0,0.0,1,1,0.0,1,1.0,0,1.0,0,1.0,0,1.0
6,43,'1',0.0177663,0.0495402,0.00459009,81.61,81.61,81.61,0.0,0.0,0.0,0.0,1,1,0.0,1,1.0,0,1.0,0,1.0,0,1.0
6,43,'2',0.0177663,0.0495402,0.00459009,81.61,81.61,81.61,0.0,0.0,0.0,0.0,1,1,0.0,1,1.0,0,1.0,0,1.0,0,1.0
6,43,'3',0.0177663,0.0495402,0.00459009,81.61,81.61,81.61,0.0,0.0,0.0,0.0,1,1,0.0,1,1.0,0,1.0,0,1.0,0,1.0
7,86,'1',0.00434889,0.0146316,0.0344193,256.34,256.34,256.34,0.0,0.0,0.0,0.0,1,1,0.0,1,1.0,0,1.0,0,1.0,0,1.0
7,86,'2',0.00434889,0.0146316,0.0344193,256.34,256.34,256.34,0.0,0.0,0.0,0.0,1,1,0.0,1,1.0,0,1.0,0,1.0,0,1.0
7,86,'3',0.00434889,0.0146316,0.0344193,256.34,256.34,256.34,0.0,0.0,0.0,0.0,1,1,0.0,1,1.0,0,1.0,0,1.0,0,1.0
8,214,'1',0.0177395,0.0479832,0.00111804,105.16,105.16,105.16,0.0,0.0,0.0,0.0,1,1,0.0,1,1.0,0,1.0,0,1.0,0,1.0
9,7,'1',0.00214021,0.0150334,0.0121318,319.17,319.17,319.17,0.0,0.0,0.0,0.0,1,1,0.0,1,1.0,0,1.0,0,1.0,0,1.0
9,11,'1',0.000211449,0.00119004,0.0,99999.0,99999.0,99999.0,0.0,0.0,0.0,0.0,1,1,0.0,1,1.0,0,1.0,0,1.0,0,1.0
9,208,'1',0.00444784,0.0271527,0.0302679,318.16,318.16,318.16,0.0,0.0,0.0,0.0,1,1,0.0,1,1.0,0,1.0,0,1.0,0,1.0
10,6,'1',0.0170262,0.0421583,0.00119287,86.29,86.29,86.29,0.0,0.0,0.0,0.0,1,1,0.0,1,1.0,0,1.0,0,1.0,0,1.0
12,14,'1',0.000238768,0.00116074,0.0,99999.0,99999.0,99999.0,0.0,0.0,0.0,0.0,1,1,0.0,1,1.0,0,1.0,0,1.0,0,1.0
13,8,'1',0.0165507,0.0426667,0.00366785,133.11,133.11,133.11,0.0,0.0,0.0,0.0,1,1,0.0,1,1.0,0,1.0,0,1.0,0,1.0
13,17,'1',0.0320514,0.0754904,0.00235805,82.53,82.53,82.53,0.0,0.0,0.0,0.0,1,1,0.0,1,1.0,0,1.0,0,1.0,0,1.0
13,187,'1',0.0069238,0.0171061,0.00801142,79.4,79.4,79.4,0.0,0.0,0.0,0.0,1,1,0.0,1,1.0,0,1.0,0,1.0,0,1.0
14,9,'1',0.00364564,0.0218068,0.0060302,172.04,172.04,172.04,0.0,0.0,0.0,0.0,1,1,0.0,1,1.0,0,1.0,0,1.0,0,1.0
15,151,'1',0.00171507,0.0115251,0.0086048,286.2,286.2,286.2,0.0,0.0,0.0,0.0,1,1,0.0,1,1.0,0,1.0,0,1.0,0,1.0
15,211,'1',0.00192474,0.0105067,0.00425216,280.32,280.32,280.32,0.0,0.0,0.0,0.0,1,1,0.0,1,1.0,0,1.0,0,1.0,0,1.0
15,232,'1',0.0046,0.029799,0.0212613,280.54,280.54,280.54,0.0,0.0,0.0,0.0,1,1,0.0,1,1.0,0,1.0,0,1.0,0,1.0
15,232,'2',0.0046,0.029799,0.0212613,321.13,321.13,321.13,0.0,0.0,0.0,0.0,1,1,0.0,1,1.0,0,1.0,0,1.0,0,1.0
16,21,'1',0.011558,0.0357297,0.00234347,105.45,105.45,105.45,0.0,0.0,0.0,0.0,1,1,0.0,1,1.0,0,1.0,0,1.0,0,1.0
16,35,'1',0.00813416,0.0195601,0.00218755,92.42,92.42,92.42,0.0,0.0,0.0,0.0,1,1,0.0,1,1.0,0,1.0,0,1.0,0,1.0
16,37,'1',0.0129734,0.0401236,0.000641011,73.63,73.63,73.63,0.0,0.0,0.0,0.0,1,1,0.0,1,1.0,0,1.0,0,1.0,0,1.0
17,43,'1',0.0167472,0.042412,0.00168994,99.4,99.4,99.4,0.0,0.0,0.0,0.0,1,1,0.0,1,1.0,0,1.0,0,1.0,0,1.0
18,19,'1',0.000249168,0.00107953,0.0,99999.0,99999.0,99999.0,0.0,0.0,0.0,0.0,1,1,0.0,1,1.0,0,1.0,0,1.0,0,1.0
18,187,'1',0.018127,0.0528191,0.00213896,73.01,73.01,73.01,0.0,0.0,0.0,0.0,1,1,0.0,1,1.0,0,1.0,0,1.0,0,1.0
18,187,'2',0.018127,0.0528191,0.00213896,82.62,82.62,82.62,0.0,0.0,0.0,0.0,1,1,0.0,1,1.0,0,1.0,0,1.0,0,1.0
20,22,'1',0.000219564,0.00118149,0.0,99999.0,99999.0,99999.0,0.0,0.0,0.0,0.0,1,1,0.0,1,1.0,0,1.0,0,1.0,0,1.0
21,38,'1',0.0228097,0.052298,0.00200842,68.0,68.0,68.0,0.0,0.0,0.0,0.0,1,1,0.0,1,1.0,0,1.0,0,1.0,0,1.0
21,38,'2',0.0228097,0.052298,0.00200842,68.0,68.0,68.0,0.0,0.0,0.0,0.0,1,1,0.0,1,1.0,0,1.0,0,1.0,0,1.0
22,34,'1',0.00459707,0.0237513,0.0317594,215.75,215.75,215.75,0.0,0.0,0.0,0.0,1,1,0.0,1,1.0,0,1.0,0,1.0,0,1.0
22,86,'1',0.0024419,0.0144345,0.00822082,267.98,267.98,267.98,0.0,0.0,0.0,0.0,1,1,0.0,1,1.0,0,1.0,0,1.0,0,1.0
22,215,'1',0.00318566,0.01486,0.0134473,258.04,258.04,258.04,0.0,0.0,0.0,0.0,1,1,0.0,1,1.0,0,1.0,0,1.0,0,1.0
22,215,'2',0.00318566,0.01486,0.0134473,258.04,258.04,258.04,0.0,0.0,0.0,0.0,1,1,0.0,1,1.0,0,1.0,0,1.0,0,1.0
22,215,'3',0.00318566,0.01486,0.0134473,258.04,258.04,258.04,0.0,0.0,0.0,0.0,1,1,0.0,1,1.0,0,1.0,0,1.0,0,1.0
22,548,'1',0.00620426,0.0329366,0.0176561,258.61,258.61,258.61,0.0,0.0,0.0,0.0,1,1,0.0,1,1.0,0,1.0,0,1.0,0,1.0
22,548,'2',0.00620426,0.0329366,0.0176561,258.61,258.61,258.61,0.0,0.0,0.0,0.0,1,1,0.0,1,1.0,0,1.0,0,1.0,0,1.0
22,548,'3',0.00620426,0.0329366,0.0176561,258.61,258.61,258.61,0.0,0.0,0.0,0.0,1,1,0.0,1,1.0,0,1.0,0,1.0,0,1.0
23,177,'1',0.0167668,0.0454559,0.00130041,75.07,75.07,75.07,0.0,0.0,0.0,0.0,1,1,0.0,1,1.0,0,1.0,0,1.0,0,1.0
24,16,'1',0.0118471,0.0318563,0.00208615,99.33,99.33,99.33,0.0,0.0,0.0,0.0,1,1,0.0,1,1.0,0,1.0,0,1.0,0,1.0
24,25,'1',0.000264528,0.00110156,0.0,99999.0,99999.0,99999.0,0.0,0.0,0.0,0.0,1,1,0.0,1,1.0,0,1.0,0,1.0,0,1.0
24,41,'1',0.015854,0.041633,0.00114618,67.07,67.07,67.07,0.0,0.0,0.0,0.0,1,1,0.0,1,1.0,0,1.0,0,1.0,0,1.0
24,41,'2',0.015854,0.041633,0.00114618,67.07,67.07,67.07,0.0,0.0,0.0,0.0,1,1,0.0,1,1.0,0,1.0,0,1.0,0,1.0
26,28,'1',0.000288654,0.00112215,0.0,99999.0,99999.0,99999.0,0.0,0.0,0.0,0.0,1,1,0.0,1,1.0,0,1.0,0,1.0,0,1.0
27,23,'1',0.0127749,0.0299585,0.00159547,59.21,59.21,59.21,0.0,0.0,0.0,0.0,1,1,0.0,1,1.0,0,1.0,0,1.0,0,1.0
27,177,'1',0.0148095,0.0384174,0.00194579,76.41,76.41,76.41,0.0,0.0,0.0,0.0,1,1,0.0,1,1.0,0,1.0,0,1.0,0,1.0
27,219,'1',0.0146725,0.0356523,0.000881023,55.36,55.36,55.36,0.0,0.0,0.0,0.0,1,1,0.0,1,1.0,0,1.0,0,1.0,0,1.0
28,165,'1',0.00356549,0.0232361,0.00589297,350.0,350.0,350.0,0.0,0.0,0.0,0.0,1,1,0.0,1,1.0,0,1.0,0,1.0,0,1.0
28,174,'1',0.00146485,0.0101278,0.00457715,241.31,241.31,241.31,0.0,0.0,0.0,0.0,1,1,0.0,1,1.0,0,1.0,0,1.0,0,1.0
28,555,'1',0.00683845,0.0343749,0.0208829,322.49,322.49,322.49,0.0,0.0,0.0,0.0,1,1,0.0,1,1.0,0,1.0,0,1.0,0,1.0
29,252,'1',0.0190813,0.056663,0.00108459,60.63,60.63,60.63,0.0,0.0,0.0,0.0,1,1,0.0,1,1.0,0,1.0,0,1.0,0,1.0
29,267,'1',0.0244295,0.0641456,0.00258533,81.86,81.86,81.86,0.0,0.0,0.0,0.0,1,1,0.0,1,1.0,0,1.0,0,1.0,0,1.0
29,557,'1',0.00231061,0.00635728,0.000323514,96.22,96.22,96.22,0.0,0.0,0.0,0.0,1,1,0.0,1,1.0,0,1.0,0,1.0,0,1.0
29,557,'2',0.00231061,0.00635728,0.000323514,109.17,109.17,109.17,0.0,0.0,0.0,0.0,1,1,0.0,1,1.0,0,1.0,0,1.0,0,1.0
30,31,'1',0.0017784,0.0116988,0.00650237,191.0,191.0,191.0,0.0,0.0,0.0,0.0,1,1,0.0,1,1.0,0,1.0,0,1.0,0,1.0
31,33,'1',0.000274453,0.00119906,0.0,99999.0,99999.0,99999.0,0.0,0.0,0.0,0.0,1,1,0.0,1,1.0,0,1.0,0,1.0,0,1.0
31,42,'1',0.00623491,0.0279952,0.00721758,229.38,229.38,229.38,0.0,0.0,0.0,0.0,1,1,0.0,1,1.0,0,1.0,0,1.0,0,1.0
32,17,'1',0.0264094,0.065065,0.0020865,68.42,68.42,68.42,0.0,0.0,0.0,0.0,1,1,0.0,1,1.0,0,1.0,0,1.0,0,1.0
32,17,'2',0.0264094,0.065065,0.0020865,68.42,68.42,68.42,0.0,0.0,0.0,0.0,1,1,0.0,1,1.0,0,1.0,0,1.0,0,1.0
32,283,'1',0.0142241,0.0432463,0.00220303,67.66,67.66,67.66,0.0,0.0,0.0,0.0,1,1,0.0,1,1.0,0,1.0,0,1.0,0,1.0
32,283,'2',0.0142241,0.0432463,0.00220303,67.66,67.66,67.66,0.0,0.0,0.0,0.0,1,1,0.0,1,1.0,0,1.0,0,1.0,0,1.0
34,31,'1',0.003786,0.0214023,0.00785309,232.2,232.2,232.2,0.0,0.0,0.0,0.0,1,1,0.0,1,1.0,0,1.0,0,1.0,0,1.0
34,31,'2',0.003786,0.0214023,0.00785309,232.2,232.2,232.2,0.0,0.0,0.0,0.0,1,1,0.0,1,1.0,0,1.0,0,1.0,0,1.0
34,39,'1',0.00416941,0.0265708,0.00900656,241.19,241.19,241.19,0.0,0.0,0.0,0.0,1,1,0.0,1,1.0,0,1.0,0,1.0,0,1.0
34,39,'2',0.00416941,0.0265708,0.00900656,241.19,241.19,241.19,0.0,0.0,0.0,0.0,1,1,0.0,1,1.0,0,1.0,0,1.0,0,1.0
34,564,'1',0.00581665,0.0316411,0.00756963,215.42,215.42,215.42,0.0,0.0,0.0,0.0,1,1,0.0,1,1.0,0,1.0,0,1.0,0,1.0
35,238,'1',0.0300367,0.0904545,0.00848998,62.8,62.8,62.8,0.0,0.0,0.0,0.0,1,1,0.0,1,1.0,0,1.0,0,1.0,0,1.0
35,557,'1',0.0312946,0.0706114,0.00282773,76.09,76.09,76.09,0.0,0.0,0.0,0.0,1,1,0.0,1,1.0,0,1.0,0,1.0,0,1.0
35,557,'2',0.0312946,0.0706114,0.00282773,76.09,76.09,76.09,0.0,0.0,0.0,0.0,1,1,0.0,1,1.0,0,1.0,0,1.0,0,1.0
35,557,'3',0.0312946,0.0706114,0.00282773,76.09,76.09,76.09,0.0,0.0,0.0,0.0,1,1,0.0,1,1.0,0,1.0,0,1.0,0,1.0
36,35,'1',0.0265135,0.047453,0.00141328,68.8,68.8,68.8,0.0,0.0,0.0,0.0,1,1,0.0,1,1.0,0,1.0,0,1.0,0,1.0
36,35,'2',0.0265135,0.047453,0.00141328,68.8,68.8,68.8,0.0,0.0,0.0,0.0,1,1,0.0,1,1.0,0,1.0,0,1.0,0,1.0
36,245,'1',0.0293616,0.0673862,0.0011626,49.63,49.63,49.63,0.0,0.0,0.0,0.0,1,1,0.0,1,1.0,0,1.0,0,1.0,0,1.0
36,249,'1',0.00801014,0.0261499,0.00092202,75.41,75.41,75.41,0.0,0.0,0.0,0.0,1,1,0.0,1,1.0,0,1.0,0,1.0,0,1.0
36,249,'2',0.00801014,0.0261499,0.00092202,75.41,75.41,75.41,0.0,0.0,0.0,0.0,1,1,0.0,1,1.0,0,1.0,0,1.0,0,1.0
36,249,'3',0.00801014,0.0261499,0.00092202,75.41,75.41,75.41,0.0,0.0,0.0,0.0,1,1,0.0,1,1.0,0,1.0,0,1.0,0,1.0
36,557,'1',0.0164183,0.0420729,0.0024045,101.25,101.25,101.25,0.0,0.0,0.0,0.0,1,1,0.0,1,1.0,0,1.0,0,1.0,0,1.0
37,21,'1',0.0161314,0.0299526,0.00131014,73.06,73.06,73.06,0.0,0.0,0.0,0.0,1,1,0.0,1,1.0,0,1.0,0,1.0,0,1.0
37,35,'1',0.0126768,0.0268139,0.00271526,77.95,77.95,77.95,0.0,0.0,0.0,0.0,1,1,0.0,1,1.0,0,1.0,0,1.0,0,1.0
37,35,'2',0.0126768,0.0268139,0.00271526,77.95,77.95,77.95,0.0,0.0,0.0,0.0,1,1,0.0,1,1.0,0,1.0,0,1.0,0,1.0
...